/*---------------------------------------------------------------------------*\
| =========                 |                                                 |
| \\      /  F ield         | OpenFOAM: The Open Source CFD Toolbox           |
|  \\    /   O peration     | Version:  v2012                                 |
|   \\  /    A nd           | Website:  www.openfoam.com                      |
|    \\/     M anipulation  |                                                 |
\*---------------------------------------------------------------------------*/
Build  : _7bdb509494-20201222 OPENFOAM=2012
Arch   : "LSB;label=32;scalar=64"
Exec   : icoFoamUp
Date   : Dec 14 2022
Time   : 11:10:12
Host   : sobolev.maths.sissa.it
PID    : 177133
I/O    : uncollated
Case   : /u/g/gbuccino/OpenFOAM/OpenFOAM-v2012/run/ActualWork/vortexMergerUp
nProcs : 1
trapFpe: Floating point exception trapping enabled (FOAM_SIGFPE).
fileModificationChecking : Monitoring run-time modified files using timeStampMaster (fileModificationSkew 5, maxFileModificationPolls 20)
allowSystemOperations : Allowing user-supplied system call operations

// * * * * * * * * * * * * * * * * * * * * * * * * * * * * * * * * * * * * * //
Create time

Create mesh for time = 0

Reading transportProperties

Reading field p

Reading field U

Reading field W

Reading field W

Reading field Psi_z

Reading vector field Psi

Reading/calculating face flux field phi


PISO: Operating solver in PISO mode


Starting time loop

Time = 0.01

Courant Number mean: 0.0648107 max: 0.142005
smoothSolver:  Solving for Ux, Initial residual = 0.000469677, Final residual = 5.62811e-07, No Iterations 1
smoothSolver:  Solving for Uy, Initial residual = 0.00066083, Final residual = 7.64139e-07, No Iterations 1
DICPCG:  Solving for p, Initial residual = 1, Final residual = 0.046458, No Iterations 103
time step continuity errors : sum local = 2.70585e-07, global = 3.69314e-21, cumulative = 3.69314e-21
GAMG:  Solving for Psi_z, Initial residual = 1, Final residual = 0.000983343, No Iterations 7
DICPCG:  Solving for p, Initial residual = 0.0422993, Final residual = 9.74065e-07, No Iterations 375
time step continuity errors : sum local = 1.03465e-11, global = -1.00789e-20, cumulative = -6.38578e-21
GAMG:  Solving for Psi_z, Initial residual = 3.72041e-06, Final residual = 4.04853e-07, No Iterations 2
ExecutionTime = 0.98 s  ClockTime = 1 s

Time = 0.02

Courant Number mean: 0.0649049 max: 0.142018
smoothSolver:  Solving for Ux, Initial residual = 0.00126256, Final residual = 1.5186e-06, No Iterations 1
smoothSolver:  Solving for Uy, Initial residual = 0.00143098, Final residual = 1.62344e-06, No Iterations 1
DICPCG:  Solving for p, Initial residual = 0.298323, Final residual = 0.0145594, No Iterations 76
time step continuity errors : sum local = 1.2916e-07, global = -1.3881e-20, cumulative = -2.02668e-20
GAMG:  Solving for Psi_z, Initial residual = 7.72792e-06, Final residual = 4.61889e-07, No Iterations 3
DICPCG:  Solving for p, Initial residual = 0.034962, Final residual = 9.45401e-07, No Iterations 365
time step continuity errors : sum local = 5.79109e-12, global = 1.39513e-21, cumulative = -1.88717e-20
GAMG:  Solving for Psi_z, Initial residual = 6.64982e-07, Final residual = 6.64982e-07, No Iterations 0
ExecutionTime = 1.51 s  ClockTime = 2 s

Time = 0.03

Courant Number mean: 0.0649319 max: 0.142033
smoothSolver:  Solving for Ux, Initial residual = 0.000476721, Final residual = 5.61991e-07, No Iterations 1
smoothSolver:  Solving for Uy, Initial residual = 0.000530613, Final residual = 5.68338e-07, No Iterations 1
DICPCG:  Solving for p, Initial residual = 0.0644502, Final residual = 0.00301994, No Iterations 75
time step continuity errors : sum local = 1.84535e-08, global = -1.84843e-20, cumulative = -3.7356e-20
GAMG:  Solving for Psi_z, Initial residual = 7.82554e-06, Final residual = 5.00773e-07, No Iterations 3
DICPCG:  Solving for p, Initial residual = 0.00576032, Final residual = 8.67487e-07, No Iterations 342
time step continuity errors : sum local = 4.67043e-12, global = 7.82685e-21, cumulative = -2.95291e-20
GAMG:  Solving for Psi_z, Initial residual = 5.29305e-07, Final residual = 5.29305e-07, No Iterations 0
ExecutionTime = 2.01 s  ClockTime = 2 s

Time = 0.04

Courant Number mean: 0.0649487 max: 0.142047
smoothSolver:  Solving for Ux, Initial residual = 0.000367217, Final residual = 4.26288e-07, No Iterations 1
smoothSolver:  Solving for Uy, Initial residual = 0.000405906, Final residual = 4.20756e-07, No Iterations 1
DICPCG:  Solving for p, Initial residual = 0.0195149, Final residual = 0.000875272, No Iterations 75
time step continuity errors : sum local = 4.89042e-09, global = 1.09123e-20, cumulative = -1.86168e-20
GAMG:  Solving for Psi_z, Initial residual = 7.64843e-06, Final residual = 5.02779e-07, No Iterations 3
DICPCG:  Solving for p, Initial residual = 0.00161751, Final residual = 9.24104e-07, No Iterations 333
time step continuity errors : sum local = 4.78911e-12, global = -1.08029e-21, cumulative = -1.96971e-20
GAMG:  Solving for Psi_z, Initial residual = 5.09796e-07, Final residual = 5.09796e-07, No Iterations 0
ExecutionTime = 2.52 s  ClockTime = 3 s

Time = 0.05

Courant Number mean: 0.0649628 max: 0.142061
smoothSolver:  Solving for Ux, Initial residual = 0.00033822, Final residual = 3.90005e-07, No Iterations 1
smoothSolver:  Solving for Uy, Initial residual = 0.000372891, Final residual = 3.81296e-07, No Iterations 1
DICPCG:  Solving for p, Initial residual = 0.010297, Final residual = 0.000471388, No Iterations 73
time step continuity errors : sum local = 2.54787e-09, global = -4.9286e-21, cumulative = -2.46257e-20
GAMG:  Solving for Psi_z, Initial residual = 7.5831e-06, Final residual = 5.02341e-07, No Iterations 3
DICPCG:  Solving for p, Initial residual = 0.000843046, Final residual = 9.30123e-07, No Iterations 326
time step continuity errors : sum local = 4.72832e-12, global = 7.89598e-21, cumulative = -1.67297e-20
GAMG:  Solving for Psi_z, Initial residual = 5.05508e-07, Final residual = 5.05508e-07, No Iterations 0
ExecutionTime = 3 s  ClockTime = 3 s

Time = 0.06

Courant Number mean: 0.0649756 max: 0.142075
smoothSolver:  Solving for Ux, Initial residual = 0.000324226, Final residual = 3.72386e-07, No Iterations 1
smoothSolver:  Solving for Uy, Initial residual = 0.000357023, Final residual = 3.62164e-07, No Iterations 1
DICPCG:  Solving for p, Initial residual = 0.00733142, Final residual = 0.000335312, No Iterations 72
time step continuity errors : sum local = 1.76454e-09, global = 2.54094e-20, cumulative = 8.67972e-21
GAMG:  Solving for Psi_z, Initial residual = 7.52894e-06, Final residual = 5.02044e-07, No Iterations 3
DICPCG:  Solving for p, Initial residual = 0.000564011, Final residual = 9.77797e-07, No Iterations 322
time step continuity errors : sum local = 4.90326e-12, global = -1.42052e-20, cumulative = -5.52544e-21
GAMG:  Solving for Psi_z, Initial residual = 5.03836e-07, Final residual = 5.03836e-07, No Iterations 0
ExecutionTime = 3.5 s  ClockTime = 4 s

Time = 0.07

Courant Number mean: 0.0649877 max: 0.142088
smoothSolver:  Solving for Ux, Initial residual = 0.000316005, Final residual = 3.6198e-07, No Iterations 1
smoothSolver:  Solving for Uy, Initial residual = 0.000347744, Final residual = 3.50866e-07, No Iterations 1
DICPCG:  Solving for p, Initial residual = 0.00583202, Final residual = 0.000280115, No Iterations 70
time step continuity errors : sum local = 1.4412e-09, global = 1.86125e-20, cumulative = 1.30871e-20
GAMG:  Solving for Psi_z, Initial residual = 7.48127e-06, Final residual = 5.01884e-07, No Iterations 3
DICPCG:  Solving for p, Initial residual = 0.00044048, Final residual = 9.26881e-07, No Iterations 311
time step continuity errors : sum local = 4.61012e-12, global = -1.41366e-20, cumulative = -1.04954e-21
GAMG:  Solving for Psi_z, Initial residual = 5.03053e-07, Final residual = 5.03053e-07, No Iterations 0
ExecutionTime = 3.98 s  ClockTime = 4 s

Time = 0.08

Courant Number mean: 0.0649994 max: 0.142101
smoothSolver:  Solving for Ux, Initial residual = 0.00031059, Final residual = 3.55094e-07, No Iterations 1
smoothSolver:  Solving for Uy, Initial residual = 0.000341666, Final residual = 3.43379e-07, No Iterations 1
DICPCG:  Solving for p, Initial residual = 0.00492518, Final residual = 0.000235437, No Iterations 70
time step continuity errors : sum local = 1.19183e-09, global = 1.5678e-20, cumulative = 1.46284e-20
GAMG:  Solving for Psi_z, Initial residual = 7.43909e-06, Final residual = 5.0178e-07, No Iterations 3
DICPCG:  Solving for p, Initial residual = 0.000361336, Final residual = 9.76295e-07, No Iterations 307
time step continuity errors : sum local = 4.81442e-12, global = -5.73697e-21, cumulative = 8.89148e-21
GAMG:  Solving for Psi_z, Initial residual = 5.02625e-07, Final residual = 5.02625e-07, No Iterations 0
ExecutionTime = 4.47 s  ClockTime = 5 s

Time = 0.09

Courant Number mean: 0.0650108 max: 0.142114
smoothSolver:  Solving for Ux, Initial residual = 0.000306729, Final residual = 3.50159e-07, No Iterations 1
smoothSolver:  Solving for Uy, Initial residual = 0.000337361, Final residual = 3.38006e-07, No Iterations 1
DICPCG:  Solving for p, Initial residual = 0.00431532, Final residual = 0.000176108, No Iterations 72
time step continuity errors : sum local = 8.82666e-10, global = 1.7116e-20, cumulative = 2.60075e-20
GAMG:  Solving for Psi_z, Initial residual = 7.40167e-06, Final residual = 5.01697e-07, No Iterations 3
DICPCG:  Solving for p, Initial residual = 0.000282618, Final residual = 9.55834e-07, No Iterations 303
time step continuity errors : sum local = 4.67704e-12, global = -2.51698e-21, cumulative = 2.34905e-20
GAMG:  Solving for Psi_z, Initial residual = 5.02359e-07, Final residual = 5.02359e-07, No Iterations 0
ExecutionTime = 4.92 s  ClockTime = 5 s

Time = 0.1

Courant Number mean: 0.065022 max: 0.142127
smoothSolver:  Solving for Ux, Initial residual = 0.000303806, Final residual = 3.46405e-07, No Iterations 1
smoothSolver:  Solving for Uy, Initial residual = 0.000334124, Final residual = 3.33909e-07, No Iterations 1
DICPCG:  Solving for p, Initial residual = 0.00386817, Final residual = 0.000164534, No Iterations 72
time step continuity errors : sum local = 8.14588e-10, global = -1.11549e-20, cumulative = 1.23357e-20
GAMG:  Solving for Psi_z, Initial residual = 7.36842e-06, Final residual = 5.01626e-07, No Iterations 3
DICPCG:  Solving for p, Initial residual = 0.000259124, Final residual = 9.88319e-07, No Iterations 297
time step continuity errors : sum local = 4.80297e-12, global = -7.4093e-21, cumulative = 4.92636e-21
GAMG:  Solving for Psi_z, Initial residual = 5.02178e-07, Final residual = 5.02178e-07, No Iterations 0
ExecutionTime = 5.4 s  ClockTime = 6 s

Time = 0.11

Courant Number mean: 0.065033 max: 0.142139
smoothSolver:  Solving for Ux, Initial residual = 0.000301489, Final residual = 3.4341e-07, No Iterations 1
smoothSolver:  Solving for Uy, Initial residual = 0.000331574, Final residual = 3.30633e-07, No Iterations 1
DICPCG:  Solving for p, Initial residual = 0.00351893, Final residual = 0.000156359, No Iterations 72
time step continuity errors : sum local = 7.66339e-10, global = 8.85714e-21, cumulative = 1.37835e-20
GAMG:  Solving for Psi_z, Initial residual = 7.33895e-06, Final residual = 5.01562e-07, No Iterations 3
DICPCG:  Solving for p, Initial residual = 0.000242877, Final residual = 9.90501e-07, No Iterations 295
time step continuity errors : sum local = 4.78723e-12, global = -1.17754e-20, cumulative = 2.00811e-21
GAMG:  Solving for Psi_z, Initial residual = 5.02044e-07, Final residual = 5.02044e-07, No Iterations 0
ExecutionTime = 5.85 s  ClockTime = 6 s

Time = 0.12

Courant Number mean: 0.0650439 max: 0.142152
smoothSolver:  Solving for Ux, Initial residual = 0.00029958, Final residual = 3.4093e-07, No Iterations 1
smoothSolver:  Solving for Uy, Initial residual = 0.000329488, Final residual = 3.27914e-07, No Iterations 1
DICPCG:  Solving for p, Initial residual = 0.00324519, Final residual = 0.000149302, No Iterations 72
time step continuity errors : sum local = 7.25538e-10, global = -1.80076e-20, cumulative = -1.59995e-20
GAMG:  Solving for Psi_z, Initial residual = 7.31281e-06, Final residual = 5.01503e-07, No Iterations 3
DICPCG:  Solving for p, Initial residual = 0.000230781, Final residual = 9.17668e-07, No Iterations 295
time step continuity errors : sum local = 4.41626e-12, global = 4.02288e-20, cumulative = 2.42293e-20
GAMG:  Solving for Psi_z, Initial residual = 5.0194e-07, Final residual = 5.0194e-07, No Iterations 0
ExecutionTime = 6.31 s  ClockTime = 7 s

Time = 0.13

Courant Number mean: 0.0650547 max: 0.142163
smoothSolver:  Solving for Ux, Initial residual = 0.000297959, Final residual = 3.38813e-07, No Iterations 1
smoothSolver:  Solving for Uy, Initial residual = 0.000327728, Final residual = 3.25585e-07, No Iterations 1
DICPCG:  Solving for p, Initial residual = 0.00303033, Final residual = 0.00014314, No Iterations 72
time step continuity errors : sum local = 6.90299e-10, global = 4.276e-21, cumulative = 2.85053e-20
GAMG:  Solving for Psi_z, Initial residual = 7.28951e-06, Final residual = 5.01449e-07, No Iterations 3
DICPCG:  Solving for p, Initial residual = 0.000220626, Final residual = 9.95517e-07, No Iterations 262
time step continuity errors : sum local = 4.78081e-12, global = -7.54176e-21, cumulative = 2.09635e-20
GAMG:  Solving for Psi_z, Initial residual = 5.01854e-07, Final residual = 5.01854e-07, No Iterations 0
ExecutionTime = 6.73 s  ClockTime = 7 s

Time = 0.14

Courant Number mean: 0.0650654 max: 0.142175
smoothSolver:  Solving for Ux, Initial residual = 0.000296547, Final residual = 3.36959e-07, No Iterations 1
smoothSolver:  Solving for Uy, Initial residual = 0.0003262, Final residual = 3.23535e-07, No Iterations 1
DICPCG:  Solving for p, Initial residual = 0.00285039, Final residual = 0.000137347, No Iterations 72
time step continuity errors : sum local = 6.58139e-10, global = -7.56123e-21, cumulative = 1.34023e-20
GAMG:  Solving for Psi_z, Initial residual = 7.26883e-06, Final residual = 5.01398e-07, No Iterations 3
DICPCG:  Solving for p, Initial residual = 0.000211832, Final residual = 9.97293e-07, No Iterations 291
time step continuity errors : sum local = 4.76069e-12, global = -1.18531e-20, cumulative = 1.54922e-21
GAMG:  Solving for Psi_z, Initial residual = 5.01779e-07, Final residual = 5.01779e-07, No Iterations 0
ExecutionTime = 7.19 s  ClockTime = 7 s

Time = 0.15

Courant Number mean: 0.065076 max: 0.142186
smoothSolver:  Solving for Ux, Initial residual = 0.000295293, Final residual = 3.35304e-07, No Iterations 1
smoothSolver:  Solving for Uy, Initial residual = 0.000324851, Final residual = 3.217e-07, No Iterations 1
DICPCG:  Solving for p, Initial residual = 0.0027109, Final residual = 0.000132039, No Iterations 72
time step continuity errors : sum local = 6.2921e-10, global = -3.04893e-20, cumulative = -2.89401e-20
GAMG:  Solving for Psi_z, Initial residual = 7.2504e-06, Final residual = 5.01347e-07, No Iterations 3
DICPCG:  Solving for p, Initial residual = 0.000203495, Final residual = 9.83142e-07, No Iterations 157
time step continuity errors : sum local = 5.30109e-12, global = -2.89371e-21, cumulative = -3.18338e-20
GAMG:  Solving for Psi_z, Initial residual = 5.01711e-07, Final residual = 5.01711e-07, No Iterations 0
ExecutionTime = 7.5 s  ClockTime = 8 s

Time = 0.16

Courant Number mean: 0.0650867 max: 0.142197
smoothSolver:  Solving for Ux, Initial residual = 0.000294161, Final residual = 3.33801e-07, No Iterations 1
smoothSolver:  Solving for Uy, Initial residual = 0.000323638, Final residual = 3.20032e-07, No Iterations 1
DICPCG:  Solving for p, Initial residual = 0.00257702, Final residual = 0.00012607, No Iterations 72
time step continuity errors : sum local = 5.98931e-10, global = -3.25639e-22, cumulative = -3.21594e-20
GAMG:  Solving for Psi_z, Initial residual = 7.23399e-06, Final residual = 5.01297e-07, No Iterations 3
DICPCG:  Solving for p, Initial residual = 0.000195718, Final residual = 9.84127e-07, No Iterations 290
time step continuity errors : sum local = 4.66609e-12, global = -8.94315e-21, cumulative = -4.11026e-20
GAMG:  Solving for Psi_z, Initial residual = 5.01649e-07, Final residual = 5.01649e-07, No Iterations 0
ExecutionTime = 7.96 s  ClockTime = 8 s

Time = 0.17

Courant Number mean: 0.0650972 max: 0.142208
smoothSolver:  Solving for Ux, Initial residual = 0.000293123, Final residual = 3.3242e-07, No Iterations 1
smoothSolver:  Solving for Uy, Initial residual = 0.000322538, Final residual = 3.18502e-07, No Iterations 1
DICPCG:  Solving for p, Initial residual = 0.0024834, Final residual = 0.000121166, No Iterations 62
time step continuity errors : sum local = 5.78054e-10, global = 4.96104e-21, cumulative = -3.61416e-20
GAMG:  Solving for Psi_z, Initial residual = 7.21941e-06, Final residual = 5.01249e-07, No Iterations 3
DICPCG:  Solving for p, Initial residual = 0.000189318, Final residual = 9.84179e-07, No Iterations 290
time step continuity errors : sum local = 4.65109e-12, global = -1.66717e-22, cumulative = -3.63083e-20
GAMG:  Solving for Psi_z, Initial residual = 5.01591e-07, Final residual = 5.01591e-07, No Iterations 0
ExecutionTime = 8.39 s  ClockTime = 9 s

Time = 0.18

Courant Number mean: 0.0651078 max: 0.142219
smoothSolver:  Solving for Ux, Initial residual = 0.000292163, Final residual = 3.31137e-07, No Iterations 1
smoothSolver:  Solving for Uy, Initial residual = 0.000321516, Final residual = 3.1707e-07, No Iterations 1
DICPCG:  Solving for p, Initial residual = 0.00244253, Final residual = 0.000119702, No Iterations 57
time step continuity errors : sum local = 5.69972e-10, global = -3.93597e-21, cumulative = -4.02442e-20
GAMG:  Solving for Psi_z, Initial residual = 7.20647e-06, Final residual = 5.01202e-07, No Iterations 3
DICPCG:  Solving for p, Initial residual = 0.000184985, Final residual = 9.92547e-07, No Iterations 250
time step continuity errors : sum local = 4.67462e-12, global = 1.94052e-20, cumulative = -2.08391e-20
GAMG:  Solving for Psi_z, Initial residual = 5.01535e-07, Final residual = 5.01535e-07, No Iterations 0
ExecutionTime = 8.81 s  ClockTime = 9 s

Time = 0.19

Courant Number mean: 0.0651186 max: 0.142229
smoothSolver:  Solving for Ux, Initial residual = 0.000291266, Final residual = 3.29933e-07, No Iterations 1
smoothSolver:  Solving for Uy, Initial residual = 0.000320579, Final residual = 3.1574e-07, No Iterations 1
DICPCG:  Solving for p, Initial residual = 0.00239148, Final residual = 0.000118424, No Iterations 55
time step continuity errors : sum local = 5.62507e-10, global = 4.00206e-21, cumulative = -1.6837e-20
GAMG:  Solving for Psi_z, Initial residual = 7.195e-06, Final residual = 5.01156e-07, No Iterations 3
DICPCG:  Solving for p, Initial residual = 0.000182007, Final residual = 9.92396e-07, No Iterations 288
time step continuity errors : sum local = 4.66587e-12, global = 7.99719e-21, cumulative = -8.83983e-21
GAMG:  Solving for Psi_z, Initial residual = 5.01484e-07, Final residual = 5.01484e-07, No Iterations 0
ExecutionTime = 9.25 s  ClockTime = 9 s

Time = 0.2

Courant Number mean: 0.0651293 max: 0.142239
smoothSolver:  Solving for Ux, Initial residual = 0.000290421, Final residual = 3.28795e-07, No Iterations 1
smoothSolver:  Solving for Uy, Initial residual = 0.000319696, Final residual = 3.14481e-07, No Iterations 1
DICPCG:  Solving for p, Initial residual = 0.00229926, Final residual = 0.000113796, No Iterations 50
time step continuity errors : sum local = 5.39284e-10, global = 2.03966e-20, cumulative = 1.15567e-20
GAMG:  Solving for Psi_z, Initial residual = 7.18481e-06, Final residual = 5.01111e-07, No Iterations 3
DICPCG:  Solving for p, Initial residual = 0.000179853, Final residual = 9.39906e-07, No Iterations 250
time step continuity errors : sum local = 4.40178e-12, global = -1.53133e-20, cumulative = -3.75661e-21
GAMG:  Solving for Psi_z, Initial residual = 5.01434e-07, Final residual = 5.01434e-07, No Iterations 0
ExecutionTime = 9.64 s  ClockTime = 10 s

Time = 0.21

Courant Number mean: 0.06514 max: 0.142249
smoothSolver:  Solving for Ux, Initial residual = 0.000289619, Final residual = 3.27714e-07, No Iterations 1
smoothSolver:  Solving for Uy, Initial residual = 0.000318861, Final residual = 3.13281e-07, No Iterations 1
DICPCG:  Solving for p, Initial residual = 0.00219782, Final residual = 0.00010962, No Iterations 49
time step continuity errors : sum local = 5.18423e-10, global = 2.45261e-20, cumulative = 2.07695e-20
GAMG:  Solving for Psi_z, Initial residual = 7.17576e-06, Final residual = 5.01069e-07, No Iterations 3
DICPCG:  Solving for p, Initial residual = 0.000174643, Final residual = 9.89421e-07, No Iterations 255
time step continuity errors : sum local = 4.62682e-12, global = 5.93494e-21, cumulative = 2.67045e-20
GAMG:  Solving for Psi_z, Initial residual = 5.01387e-07, Final residual = 5.01387e-07, No Iterations 0
ExecutionTime = 10.04 s  ClockTime = 10 s

Time = 0.22

Courant Number mean: 0.0651508 max: 0.142258
smoothSolver:  Solving for Ux, Initial residual = 0.000288857, Final residual = 3.26683e-07, No Iterations 1
smoothSolver:  Solving for Uy, Initial residual = 0.000318069, Final residual = 3.12139e-07, No Iterations 1
DICPCG:  Solving for p, Initial residual = 0.00211061, Final residual = 0.000103356, No Iterations 49
time step continuity errors : sum local = 4.8798e-10, global = -1.69664e-20, cumulative = 9.73805e-21
GAMG:  Solving for Psi_z, Initial residual = 7.1677e-06, Final residual = 5.01029e-07, No Iterations 3
DICPCG:  Solving for p, Initial residual = 0.000168743, Final residual = 9.93023e-07, No Iterations 249
time step continuity errors : sum local = 4.63097e-12, global = -5.03197e-21, cumulative = 4.70608e-21
GAMG:  Solving for Psi_z, Initial residual = 5.01343e-07, Final residual = 5.01343e-07, No Iterations 0
ExecutionTime = 10.44 s  ClockTime = 11 s

Time = 0.23

Courant Number mean: 0.0651616 max: 0.142267
smoothSolver:  Solving for Ux, Initial residual = 0.000288128, Final residual = 3.25693e-07, No Iterations 1
smoothSolver:  Solving for Uy, Initial residual = 0.000317315, Final residual = 3.11047e-07, No Iterations 1
DICPCG:  Solving for p, Initial residual = 0.00205312, Final residual = 9.99775e-05, No Iterations 49
time step continuity errors : sum local = 4.71167e-10, global = -1.21596e-20, cumulative = -7.45351e-21
GAMG:  Solving for Psi_z, Initial residual = 7.16046e-06, Final residual = 5.00989e-07, No Iterations 3
DICPCG:  Solving for p, Initial residual = 0.000165591, Final residual = 9.87528e-07, No Iterations 249
time step continuity errors : sum local = 4.59706e-12, global = 9.83081e-21, cumulative = 2.3773e-21
GAMG:  Solving for Psi_z, Initial residual = 5.01301e-07, Final residual = 5.01301e-07, No Iterations 0
ExecutionTime = 10.82 s  ClockTime = 11 s

Time = 0.24

Courant Number mean: 0.0651723 max: 0.142276
smoothSolver:  Solving for Ux, Initial residual = 0.000287428, Final residual = 3.2474e-07, No Iterations 1
smoothSolver:  Solving for Uy, Initial residual = 0.000316594, Final residual = 3.09999e-07, No Iterations 1
DICPCG:  Solving for p, Initial residual = 0.00201373, Final residual = 9.83047e-05, No Iterations 49
time step continuity errors : sum local = 4.62383e-10, global = -1.75399e-20, cumulative = -1.51626e-20
GAMG:  Solving for Psi_z, Initial residual = 7.15398e-06, Final residual = 5.0095e-07, No Iterations 3
DICPCG:  Solving for p, Initial residual = 0.000163072, Final residual = 9.96837e-07, No Iterations 249
time step continuity errors : sum local = 4.6308e-12, global = -4.65474e-21, cumulative = -1.98173e-20
GAMG:  Solving for Psi_z, Initial residual = 5.0126e-07, Final residual = 5.0126e-07, No Iterations 0
ExecutionTime = 11.22 s  ClockTime = 11 s

Time = 0.25

Courant Number mean: 0.0651831 max: 0.142291
smoothSolver:  Solving for Ux, Initial residual = 0.000286754, Final residual = 3.23819e-07, No Iterations 1
smoothSolver:  Solving for Uy, Initial residual = 0.000315903, Final residual = 3.0899e-07, No Iterations 1
DICPCG:  Solving for p, Initial residual = 0.00198636, Final residual = 9.80326e-05, No Iterations 49
time step continuity errors : sum local = 4.60157e-10, global = 1.74752e-21, cumulative = -1.80698e-20
GAMG:  Solving for Psi_z, Initial residual = 7.14818e-06, Final residual = 5.00912e-07, No Iterations 3
DICPCG:  Solving for p, Initial residual = 0.000161158, Final residual = 9.59714e-07, No Iterations 250
time step continuity errors : sum local = 4.4453e-12, global = 2.88954e-21, cumulative = -1.51803e-20
GAMG:  Solving for Psi_z, Initial residual = 5.01219e-07, Final residual = 5.01219e-07, No Iterations 0
ExecutionTime = 11.62 s  ClockTime = 12 s

Time = 0.26

Courant Number mean: 0.0651938 max: 0.142306
smoothSolver:  Solving for Ux, Initial residual = 0.000286103, Final residual = 3.22927e-07, No Iterations 1
smoothSolver:  Solving for Uy, Initial residual = 0.000315237, Final residual = 3.08014e-07, No Iterations 1
DICPCG:  Solving for p, Initial residual = 0.00194842, Final residual = 9.67919e-05, No Iterations 49
time step continuity errors : sum local = 4.53501e-10, global = -1.33413e-20, cumulative = -2.85216e-20
GAMG:  Solving for Psi_z, Initial residual = 7.14291e-06, Final residual = 5.00876e-07, No Iterations 3
DICPCG:  Solving for p, Initial residual = 0.000159999, Final residual = 9.77562e-07, No Iterations 250
time step continuity errors : sum local = 4.52995e-12, global = 3.23451e-22, cumulative = -2.81981e-20
GAMG:  Solving for Psi_z, Initial residual = 5.0118e-07, Final residual = 5.0118e-07, No Iterations 0
ExecutionTime = 12.01 s  ClockTime = 12 s

Time = 0.27

Courant Number mean: 0.0652046 max: 0.142321
smoothSolver:  Solving for Ux, Initial residual = 0.000285473, Final residual = 3.22062e-07, No Iterations 1
smoothSolver:  Solving for Uy, Initial residual = 0.000314595, Final residual = 3.07072e-07, No Iterations 1
DICPCG:  Solving for p, Initial residual = 0.00190661, Final residual = 9.46095e-05, No Iterations 49
time step continuity errors : sum local = 4.42551e-10, global = -1.15526e-21, cumulative = -2.93534e-20
GAMG:  Solving for Psi_z, Initial residual = 7.13815e-06, Final residual = 5.0084e-07, No Iterations 3
DICPCG:  Solving for p, Initial residual = 0.000158114, Final residual = 9.16278e-07, No Iterations 249
time step continuity errors : sum local = 4.22766e-12, global = 1.10189e-20, cumulative = -1.83344e-20
GAMG:  Solving for Psi_z, Initial residual = 5.01141e-07, Final residual = 5.01141e-07, No Iterations 0
ExecutionTime = 12.4 s  ClockTime = 13 s

Time = 0.28

Courant Number mean: 0.0652153 max: 0.142335
smoothSolver:  Solving for Ux, Initial residual = 0.000284861, Final residual = 3.21221e-07, No Iterations 1
smoothSolver:  Solving for Uy, Initial residual = 0.000313975, Final residual = 3.06161e-07, No Iterations 1
DICPCG:  Solving for p, Initial residual = 0.0018676, Final residual = 9.28634e-05, No Iterations 49
time step continuity errors : sum local = 4.33644e-10, global = 6.64045e-21, cumulative = -1.1694e-20
GAMG:  Solving for Psi_z, Initial residual = 7.13388e-06, Final residual = 5.00804e-07, No Iterations 3
DICPCG:  Solving for p, Initial residual = 0.000156804, Final residual = 9.75638e-07, No Iterations 249
time step continuity errors : sum local = 4.4995e-12, global = 5.80047e-22, cumulative = -1.11139e-20
GAMG:  Solving for Psi_z, Initial residual = 5.01104e-07, Final residual = 5.01104e-07, No Iterations 0
ExecutionTime = 12.78 s  ClockTime = 13 s

Time = 0.29

Courant Number mean: 0.065226 max: 0.142349
smoothSolver:  Solving for Ux, Initial residual = 0.000284266, Final residual = 3.20402e-07, No Iterations 1
smoothSolver:  Solving for Uy, Initial residual = 0.000313373, Final residual = 3.05277e-07, No Iterations 1
DICPCG:  Solving for p, Initial residual = 0.00184148, Final residual = 8.67895e-05, No Iterations 50
time step continuity errors : sum local = 4.04963e-10, global = 1.69309e-20, cumulative = 5.81696e-21
GAMG:  Solving for Psi_z, Initial residual = 7.12995e-06, Final residual = 5.00769e-07, No Iterations 3
DICPCG:  Solving for p, Initial residual = 0.000150714, Final residual = 9.85885e-07, No Iterations 248
time step continuity errors : sum local = 4.5309e-12, global = -9.68526e-21, cumulative = -3.8683e-21
GAMG:  Solving for Psi_z, Initial residual = 5.01067e-07, Final residual = 5.01067e-07, No Iterations 0
ExecutionTime = 13.18 s  ClockTime = 13 s

Time = 0.3

Courant Number mean: 0.0652367 max: 0.142363
smoothSolver:  Solving for Ux, Initial residual = 0.000283687, Final residual = 3.19603e-07, No Iterations 1
smoothSolver:  Solving for Uy, Initial residual = 0.000312788, Final residual = 3.0442e-07, No Iterations 1
DICPCG:  Solving for p, Initial residual = 0.00182364, Final residual = 8.67411e-05, No Iterations 50
time step continuity errors : sum local = 4.04001e-10, global = -1.78675e-20, cumulative = -2.17358e-20
GAMG:  Solving for Psi_z, Initial residual = 7.12634e-06, Final residual = 5.00737e-07, No Iterations 3
DICPCG:  Solving for p, Initial residual = 0.000149764, Final residual = 9.90397e-07, No Iterations 249
time step continuity errors : sum local = 4.55054e-12, global = 9.50021e-21, cumulative = -1.22356e-20
GAMG:  Solving for Psi_z, Initial residual = 5.01033e-07, Final residual = 5.01033e-07, No Iterations 0
ExecutionTime = 13.56 s  ClockTime = 14 s

Time = 0.31

Courant Number mean: 0.0652474 max: 0.142377
smoothSolver:  Solving for Ux, Initial residual = 0.000283122, Final residual = 3.18823e-07, No Iterations 1
smoothSolver:  Solving for Uy, Initial residual = 0.00031222, Final residual = 3.03586e-07, No Iterations 1
DICPCG:  Solving for p, Initial residual = 0.0017982, Final residual = 8.56752e-05, No Iterations 50
time step continuity errors : sum local = 3.98417e-10, global = 4.09973e-20, cumulative = 2.87617e-20
GAMG:  Solving for Psi_z, Initial residual = 7.123e-06, Final residual = 5.00706e-07, No Iterations 3
DICPCG:  Solving for p, Initial residual = 0.000148657, Final residual = 9.55286e-07, No Iterations 248
time step continuity errors : sum local = 4.37288e-12, global = 1.60706e-20, cumulative = 4.48323e-20
GAMG:  Solving for Psi_z, Initial residual = 5.01001e-07, Final residual = 5.01001e-07, No Iterations 0
ExecutionTime = 13.94 s  ClockTime = 14 s

Time = 0.32

Courant Number mean: 0.065258 max: 0.14239
smoothSolver:  Solving for Ux, Initial residual = 0.000282571, Final residual = 3.1806e-07, No Iterations 1
smoothSolver:  Solving for Uy, Initial residual = 0.000311666, Final residual = 3.02777e-07, No Iterations 1
DICPCG:  Solving for p, Initial residual = 0.00177124, Final residual = 8.43664e-05, No Iterations 50
time step continuity errors : sum local = 3.9173e-10, global = -1.15558e-20, cumulative = 3.32765e-20
GAMG:  Solving for Psi_z, Initial residual = 7.11993e-06, Final residual = 5.00677e-07, No Iterations 3
DICPCG:  Solving for p, Initial residual = 0.000148603, Final residual = 9.87368e-07, No Iterations 249
time step continuity errors : sum local = 4.52004e-12, global = 2.06089e-20, cumulative = 5.38853e-20
GAMG:  Solving for Psi_z, Initial residual = 5.0097e-07, Final residual = 5.0097e-07, No Iterations 0
ExecutionTime = 14.31 s  ClockTime = 15 s

Time = 0.33

Courant Number mean: 0.0652686 max: 0.142403
smoothSolver:  Solving for Ux, Initial residual = 0.000282032, Final residual = 3.17313e-07, No Iterations 1
smoothSolver:  Solving for Uy, Initial residual = 0.000311127, Final residual = 3.0199e-07, No Iterations 1
DICPCG:  Solving for p, Initial residual = 0.00175335, Final residual = 8.4233e-05, No Iterations 50
time step continuity errors : sum local = 3.90473e-10, global = 1.17555e-20, cumulative = 6.56408e-20
GAMG:  Solving for Psi_z, Initial residual = 7.11711e-06, Final residual = 5.0065e-07, No Iterations 3
DICPCG:  Solving for p, Initial residual = 0.000147499, Final residual = 9.74474e-07, No Iterations 248
time step continuity errors : sum local = 4.44602e-12, global = -6.97078e-21, cumulative = 5.867e-20
GAMG:  Solving for Psi_z, Initial residual = 5.00941e-07, Final residual = 5.00941e-07, No Iterations 0
ExecutionTime = 14.71 s  ClockTime = 15 s

Time = 0.34

Courant Number mean: 0.0652792 max: 0.142416
smoothSolver:  Solving for Ux, Initial residual = 0.000281507, Final residual = 3.16582e-07, No Iterations 1
smoothSolver:  Solving for Uy, Initial residual = 0.000310599, Final residual = 3.01227e-07, No Iterations 1
DICPCG:  Solving for p, Initial residual = 0.00172914, Final residual = 8.22783e-05, No Iterations 50
time step continuity errors : sum local = 3.80902e-10, global = -2.88126e-20, cumulative = 2.98574e-20
GAMG:  Solving for Psi_z, Initial residual = 7.11451e-06, Final residual = 5.00625e-07, No Iterations 3
DICPCG:  Solving for p, Initial residual = 0.000145572, Final residual = 9.51727e-07, No Iterations 249
time step continuity errors : sum local = 4.33981e-12, global = 1.1295e-20, cumulative = 4.11525e-20
GAMG:  Solving for Psi_z, Initial residual = 5.00915e-07, Final residual = 5.00915e-07, No Iterations 0
ExecutionTime = 15.1 s  ClockTime = 15 s

Time = 0.35

Courant Number mean: 0.0652898 max: 0.142428
smoothSolver:  Solving for Ux, Initial residual = 0.000280992, Final residual = 3.15864e-07, No Iterations 1
smoothSolver:  Solving for Uy, Initial residual = 0.000310084, Final residual = 3.00486e-07, No Iterations 1
DICPCG:  Solving for p, Initial residual = 0.00172628, Final residual = 8.43574e-05, No Iterations 50
time step continuity errors : sum local = 3.8975e-10, global = -1.98097e-21, cumulative = 3.91715e-20
GAMG:  Solving for Psi_z, Initial residual = 7.11209e-06, Final residual = 5.00602e-07, No Iterations 3
DICPCG:  Solving for p, Initial residual = 0.000144532, Final residual = 9.82532e-07, No Iterations 248
time step continuity errors : sum local = 4.46738e-12, global = -7.2442e-22, cumulative = 3.84471e-20
GAMG:  Solving for Psi_z, Initial residual = 5.0089e-07, Final residual = 5.0089e-07, No Iterations 0
ExecutionTime = 15.5 s  ClockTime = 16 s

Time = 0.36

Courant Number mean: 0.0653003 max: 0.14244
smoothSolver:  Solving for Ux, Initial residual = 0.000280488, Final residual = 3.1516e-07, No Iterations 1
smoothSolver:  Solving for Uy, Initial residual = 0.00030958, Final residual = 2.99767e-07, No Iterations 1
DICPCG:  Solving for p, Initial residual = 0.00173126, Final residual = 8.58657e-05, No Iterations 50
time step continuity errors : sum local = 3.95964e-10, global = -1.43422e-20, cumulative = 2.41048e-20
GAMG:  Solving for Psi_z, Initial residual = 7.10989e-06, Final residual = 5.0058e-07, No Iterations 3
DICPCG:  Solving for p, Initial residual = 0.000143999, Final residual = 9.86182e-07, No Iterations 264
time step continuity errors : sum local = 4.48788e-12, global = 2.84757e-20, cumulative = 5.25805e-20
GAMG:  Solving for Psi_z, Initial residual = 5.00868e-07, Final residual = 5.00868e-07, No Iterations 0
ExecutionTime = 15.9 s  ClockTime = 16 s

Time = 0.37

Courant Number mean: 0.0653109 max: 0.142452
smoothSolver:  Solving for Ux, Initial residual = 0.000279995, Final residual = 3.14468e-07, No Iterations 1
smoothSolver:  Solving for Uy, Initial residual = 0.000309086, Final residual = 2.99067e-07, No Iterations 1
DICPCG:  Solving for p, Initial residual = 0.0017178, Final residual = 8.32278e-05, No Iterations 50
time step continuity errors : sum local = 3.83386e-10, global = -1.60533e-20, cumulative = 3.65273e-20
GAMG:  Solving for Psi_z, Initial residual = 7.10787e-06, Final residual = 5.0056e-07, No Iterations 3
DICPCG:  Solving for p, Initial residual = 0.000142952, Final residual = 9.46612e-07, No Iterations 249
time step continuity errors : sum local = 4.29255e-12, global = -1.71051e-20, cumulative = 1.94221e-20
GAMG:  Solving for Psi_z, Initial residual = 5.00847e-07, Final residual = 5.00847e-07, No Iterations 0
ExecutionTime = 16.31 s  ClockTime = 17 s

Time = 0.38

Courant Number mean: 0.0653214 max: 0.142464
smoothSolver:  Solving for Ux, Initial residual = 0.000279511, Final residual = 3.13788e-07, No Iterations 1
smoothSolver:  Solving for Uy, Initial residual = 0.000308603, Final residual = 2.98387e-07, No Iterations 1
DICPCG:  Solving for p, Initial residual = 0.00170758, Final residual = 8.34723e-05, No Iterations 50
time step continuity errors : sum local = 3.83865e-10, global = 1.14974e-20, cumulative = 3.09195e-20
GAMG:  Solving for Psi_z, Initial residual = 7.106e-06, Final residual = 5.00541e-07, No Iterations 3
DICPCG:  Solving for p, Initial residual = 0.000141439, Final residual = 9.28552e-07, No Iterations 286
time step continuity errors : sum local = 4.20481e-12, global = -7.74924e-21, cumulative = 2.31703e-20
GAMG:  Solving for Psi_z, Initial residual = 5.00827e-07, Final residual = 5.00827e-07, No Iterations 0
ExecutionTime = 16.73 s  ClockTime = 17 s

Time = 0.39

Courant Number mean: 0.0653319 max: 0.142475
smoothSolver:  Solving for Ux, Initial residual = 0.000279035, Final residual = 3.13118e-07, No Iterations 1
smoothSolver:  Solving for Uy, Initial residual = 0.00030813, Final residual = 2.97724e-07, No Iterations 1
DICPCG:  Solving for p, Initial residual = 0.001682, Final residual = 8.214e-05, No Iterations 50
time step continuity errors : sum local = 3.77212e-10, global = 2.14832e-20, cumulative = 4.46534e-20
GAMG:  Solving for Psi_z, Initial residual = 7.10427e-06, Final residual = 5.00523e-07, No Iterations 3
DICPCG:  Solving for p, Initial residual = 0.000141229, Final residual = 9.4578e-07, No Iterations 249
time step continuity errors : sum local = 4.27408e-12, global = -2.77657e-20, cumulative = 1.68877e-20
GAMG:  Solving for Psi_z, Initial residual = 5.00809e-07, Final residual = 5.00809e-07, No Iterations 0
ExecutionTime = 17.12 s  ClockTime = 17 s

Time = 0.4

Courant Number mean: 0.0653424 max: 0.142487
smoothSolver:  Solving for Ux, Initial residual = 0.000278568, Final residual = 3.1246e-07, No Iterations 1
smoothSolver:  Solving for Uy, Initial residual = 0.000307667, Final residual = 2.97078e-07, No Iterations 1
DICPCG:  Solving for p, Initial residual = 0.00166602, Final residual = 8.10392e-05, No Iterations 50
time step continuity errors : sum local = 3.71811e-10, global = -3.36903e-20, cumulative = -1.68026e-20
GAMG:  Solving for Psi_z, Initial residual = 7.10264e-06, Final residual = 5.00506e-07, No Iterations 3
DICPCG:  Solving for p, Initial residual = 0.00014096, Final residual = 9.70289e-07, No Iterations 286
time step continuity errors : sum local = 4.38357e-12, global = 2.80122e-22, cumulative = -1.65225e-20
GAMG:  Solving for Psi_z, Initial residual = 5.00792e-07, Final residual = 5.00792e-07, No Iterations 0
ExecutionTime = 17.54 s  ClockTime = 18 s

Time = 0.41

Courant Number mean: 0.0653529 max: 0.142497
smoothSolver:  Solving for Ux, Initial residual = 0.000278109, Final residual = 3.11811e-07, No Iterations 1
smoothSolver:  Solving for Uy, Initial residual = 0.000307211, Final residual = 2.96445e-07, No Iterations 1
DICPCG:  Solving for p, Initial residual = 0.00164473, Final residual = 8.13033e-05, No Iterations 50
time step continuity errors : sum local = 3.72852e-10, global = -4.02552e-22, cumulative = -1.6925e-20
GAMG:  Solving for Psi_z, Initial residual = 7.1011e-06, Final residual = 5.00492e-07, No Iterations 3
DICPCG:  Solving for p, Initial residual = 0.000141924, Final residual = 9.87971e-07, No Iterations 251
time step continuity errors : sum local = 4.4557e-12, global = 3.78368e-21, cumulative = -1.31413e-20
GAMG:  Solving for Psi_z, Initial residual = 5.00778e-07, Final residual = 5.00778e-07, No Iterations 0
ExecutionTime = 17.94 s  ClockTime = 18 s

Time = 0.42

Courant Number mean: 0.0653633 max: 0.142508
smoothSolver:  Solving for Ux, Initial residual = 0.000277658, Final residual = 3.11171e-07, No Iterations 1
smoothSolver:  Solving for Uy, Initial residual = 0.000306753, Final residual = 2.95815e-07, No Iterations 1
DICPCG:  Solving for p, Initial residual = 0.00161517, Final residual = 7.67263e-05, No Iterations 50
time step continuity errors : sum local = 3.51837e-10, global = 3.48726e-20, cumulative = 2.17313e-20
GAMG:  Solving for Psi_z, Initial residual = 7.09961e-06, Final residual = 5.0048e-07, No Iterations 3
DICPCG:  Solving for p, Initial residual = 0.000142336, Final residual = 8.8878e-07, No Iterations 287
time step continuity errors : sum local = 3.99956e-12, global = 2.36934e-21, cumulative = 2.41006e-20
GAMG:  Solving for Psi_z, Initial residual = 5.00765e-07, Final residual = 5.00765e-07, No Iterations 0
ExecutionTime = 18.37 s  ClockTime = 19 s

Time = 0.43

Courant Number mean: 0.0653737 max: 0.142518
smoothSolver:  Solving for Ux, Initial residual = 0.000277214, Final residual = 3.10541e-07, No Iterations 1
smoothSolver:  Solving for Uy, Initial residual = 0.000306301, Final residual = 2.95196e-07, No Iterations 1
DICPCG:  Solving for p, Initial residual = 0.00160197, Final residual = 7.96314e-05, No Iterations 49
time step continuity errors : sum local = 3.63917e-10, global = -8.62535e-21, cumulative = 1.54753e-20
GAMG:  Solving for Psi_z, Initial residual = 7.09819e-06, Final residual = 5.00468e-07, No Iterations 3
DICPCG:  Solving for p, Initial residual = 0.000143659, Final residual = 9.8168e-07, No Iterations 256
time step continuity errors : sum local = 4.41673e-12, global = -1.3819e-20, cumulative = 1.65622e-21
GAMG:  Solving for Psi_z, Initial residual = 5.00752e-07, Final residual = 5.00752e-07, No Iterations 0
ExecutionTime = 18.76 s  ClockTime = 19 s

Time = 0.44

Courant Number mean: 0.0653841 max: 0.142529
smoothSolver:  Solving for Ux, Initial residual = 0.000276776, Final residual = 3.09921e-07, No Iterations 1
smoothSolver:  Solving for Uy, Initial residual = 0.000305865, Final residual = 2.946e-07, No Iterations 1
DICPCG:  Solving for p, Initial residual = 0.00159148, Final residual = 7.91189e-05, No Iterations 49
time step continuity errors : sum local = 3.61032e-10, global = -8.22005e-21, cumulative = -6.56383e-21
GAMG:  Solving for Psi_z, Initial residual = 7.09683e-06, Final residual = 5.00456e-07, No Iterations 3
DICPCG:  Solving for p, Initial residual = 0.000142944, Final residual = 9.98704e-07, No Iterations 282
time step continuity errors : sum local = 4.48646e-12, global = -7.59402e-21, cumulative = -1.41578e-20
GAMG:  Solving for Psi_z, Initial residual = 5.0074e-07, Final residual = 5.0074e-07, No Iterations 0
ExecutionTime = 19.17 s  ClockTime = 19 s

Time = 0.45

Courant Number mean: 0.0653945 max: 0.142538
smoothSolver:  Solving for Ux, Initial residual = 0.000276344, Final residual = 3.0931e-07, No Iterations 1
smoothSolver:  Solving for Uy, Initial residual = 0.000305438, Final residual = 2.94018e-07, No Iterations 1
DICPCG:  Solving for p, Initial residual = 0.00158817, Final residual = 7.57041e-05, No Iterations 50
time step continuity errors : sum local = 3.45255e-10, global = 7.26677e-21, cumulative = -6.89108e-21
GAMG:  Solving for Psi_z, Initial residual = 7.09553e-06, Final residual = 5.00446e-07, No Iterations 3
DICPCG:  Solving for p, Initial residual = 0.000138873, Final residual = 9.4908e-07, No Iterations 249
time step continuity errors : sum local = 4.25475e-12, global = 1.57039e-20, cumulative = 8.81283e-21
GAMG:  Solving for Psi_z, Initial residual = 5.00729e-07, Final residual = 5.00729e-07, No Iterations 0
ExecutionTime = 19.57 s  ClockTime = 20 s

Time = 0.46

Courant Number mean: 0.0654049 max: 0.142548
smoothSolver:  Solving for Ux, Initial residual = 0.000275918, Final residual = 3.08707e-07, No Iterations 1
smoothSolver:  Solving for Uy, Initial residual = 0.000305018, Final residual = 2.93449e-07, No Iterations 1
DICPCG:  Solving for p, Initial residual = 0.00157744, Final residual = 7.52202e-05, No Iterations 50
time step continuity errors : sum local = 3.4259e-10, global = 1.13871e-21, cumulative = 9.95153e-21
GAMG:  Solving for Psi_z, Initial residual = 7.09428e-06, Final residual = 5.00437e-07, No Iterations 3
DICPCG:  Solving for p, Initial residual = 0.000138672, Final residual = 9.96216e-07, No Iterations 253
time step continuity errors : sum local = 4.46302e-12, global = -2.25608e-20, cumulative = -1.26093e-20
GAMG:  Solving for Psi_z, Initial residual = 5.0072e-07, Final residual = 5.0072e-07, No Iterations 0
ExecutionTime = 19.95 s  ClockTime = 20 s

Time = 0.47

Courant Number mean: 0.0654152 max: 0.142557
smoothSolver:  Solving for Ux, Initial residual = 0.000275498, Final residual = 3.08112e-07, No Iterations 1
smoothSolver:  Solving for Uy, Initial residual = 0.000304606, Final residual = 2.92892e-07, No Iterations 1
DICPCG:  Solving for p, Initial residual = 0.00156855, Final residual = 7.49532e-05, No Iterations 50
time step continuity errors : sum local = 3.40983e-10, global = -2.03386e-21, cumulative = -1.46431e-20
GAMG:  Solving for Psi_z, Initial residual = 7.09309e-06, Final residual = 5.0043e-07, No Iterations 3
DICPCG:  Solving for p, Initial residual = 0.000139071, Final residual = 9.93893e-07, No Iterations 248
time step continuity errors : sum local = 4.44621e-12, global = -4.13569e-20, cumulative = -5.6e-20
GAMG:  Solving for Psi_z, Initial residual = 5.00714e-07, Final residual = 5.00714e-07, No Iterations 0
ExecutionTime = 20.33 s  ClockTime = 21 s

Time = 0.48

Courant Number mean: 0.0654256 max: 0.142566
smoothSolver:  Solving for Ux, Initial residual = 0.000275085, Final residual = 3.07525e-07, No Iterations 1
smoothSolver:  Solving for Uy, Initial residual = 0.000304199, Final residual = 2.92345e-07, No Iterations 1
DICPCG:  Solving for p, Initial residual = 0.00155207, Final residual = 7.41162e-05, No Iterations 50
time step continuity errors : sum local = 3.36875e-10, global = -4.68254e-21, cumulative = -6.06825e-20
GAMG:  Solving for Psi_z, Initial residual = 7.09192e-06, Final residual = 5.00425e-07, No Iterations 3
DICPCG:  Solving for p, Initial residual = 0.000138001, Final residual = 9.28559e-07, No Iterations 249
time step continuity errors : sum local = 4.1455e-12, global = -1.04169e-20, cumulative = -7.10994e-20
GAMG:  Solving for Psi_z, Initial residual = 5.00709e-07, Final residual = 5.00709e-07, No Iterations 0
ExecutionTime = 20.72 s  ClockTime = 21 s

Time = 0.49

Courant Number mean: 0.0654359 max: 0.142575
smoothSolver:  Solving for Ux, Initial residual = 0.000274676, Final residual = 3.06944e-07, No Iterations 1
smoothSolver:  Solving for Uy, Initial residual = 0.000303796, Final residual = 2.91807e-07, No Iterations 1
DICPCG:  Solving for p, Initial residual = 0.00154789, Final residual = 7.51584e-05, No Iterations 50
time step continuity errors : sum local = 3.41066e-10, global = 4.63772e-21, cumulative = -6.64617e-20
GAMG:  Solving for Psi_z, Initial residual = 7.09082e-06, Final residual = 5.00423e-07, No Iterations 3
DICPCG:  Solving for p, Initial residual = 0.000137771, Final residual = 9.95615e-07, No Iterations 249
time step continuity errors : sum local = 4.44067e-12, global = 9.12661e-21, cumulative = -5.73351e-20
GAMG:  Solving for Psi_z, Initial residual = 5.00707e-07, Final residual = 5.00707e-07, No Iterations 0
ExecutionTime = 21.12 s  ClockTime = 21 s

Time = 0.5

Courant Number mean: 0.0654462 max: 0.142583
smoothSolver:  Solving for Ux, Initial residual = 0.000274273, Final residual = 3.0637e-07, No Iterations 1
smoothSolver:  Solving for Uy, Initial residual = 0.0003034, Final residual = 2.91278e-07, No Iterations 1
DICPCG:  Solving for p, Initial residual = 0.00155466, Final residual = 7.64129e-05, No Iterations 50
time step continuity errors : sum local = 3.46211e-10, global = -8.14382e-21, cumulative = -6.54789e-20
GAMG:  Solving for Psi_z, Initial residual = 7.08976e-06, Final residual = 5.00423e-07, No Iterations 3
DICPCG:  Solving for p, Initial residual = 0.00013701, Final residual = 9.82458e-07, No Iterations 249
time step continuity errors : sum local = 4.37583e-12, global = 2.67705e-20, cumulative = -3.87084e-20
GAMG:  Solving for Psi_z, Initial residual = 5.00706e-07, Final residual = 5.00706e-07, No Iterations 0
ExecutionTime = 21.8 s  ClockTime = 22 s

Time = 0.51

Courant Number mean: 0.0654566 max: 0.142592
smoothSolver:  Solving for Ux, Initial residual = 0.000273875, Final residual = 3.05803e-07, No Iterations 1
smoothSolver:  Solving for Uy, Initial residual = 0.000303009, Final residual = 2.90759e-07, No Iterations 1
DICPCG:  Solving for p, Initial residual = 0.00155527, Final residual = 7.64563e-05, No Iterations 50
time step continuity errors : sum local = 3.45952e-10, global = 2.51633e-21, cumulative = -3.61921e-20
GAMG:  Solving for Psi_z, Initial residual = 7.08871e-06, Final residual = 5.00424e-07, No Iterations 3
DICPCG:  Solving for p, Initial residual = 0.000136085, Final residual = 9.58523e-07, No Iterations 253
time step continuity errors : sum local = 4.26433e-12, global = 9.01656e-21, cumulative = -2.71755e-20
GAMG:  Solving for Psi_z, Initial residual = 5.00706e-07, Final residual = 5.00706e-07, No Iterations 0
ExecutionTime = 22.18 s  ClockTime = 23 s

Time = 0.52

Courant Number mean: 0.065467 max: 0.1426
smoothSolver:  Solving for Ux, Initial residual = 0.000273481, Final residual = 3.05241e-07, No Iterations 1
smoothSolver:  Solving for Uy, Initial residual = 0.000302625, Final residual = 2.90252e-07, No Iterations 1
DICPCG:  Solving for p, Initial residual = 0.00159424, Final residual = 7.899e-05, No Iterations 49
time step continuity errors : sum local = 3.56734e-10, global = -2.31783e-22, cumulative = -2.74073e-20
GAMG:  Solving for Psi_z, Initial residual = 7.0877e-06, Final residual = 5.00428e-07, No Iterations 3
DICPCG:  Solving for p, Initial residual = 0.000133937, Final residual = 9.75925e-07, No Iterations 253
time step continuity errors : sum local = 4.3362e-12, global = -2.01786e-21, cumulative = -2.94252e-20
GAMG:  Solving for Psi_z, Initial residual = 5.00709e-07, Final residual = 5.00709e-07, No Iterations 0
ExecutionTime = 22.56 s  ClockTime = 23 s

Time = 0.53

Courant Number mean: 0.0654775 max: 0.142607
smoothSolver:  Solving for Ux, Initial residual = 0.000273092, Final residual = 3.04685e-07, No Iterations 1
smoothSolver:  Solving for Uy, Initial residual = 0.000302245, Final residual = 2.89753e-07, No Iterations 1
DICPCG:  Solving for p, Initial residual = 0.00166672, Final residual = 8.31946e-05, No Iterations 48
time step continuity errors : sum local = 3.7493e-10, global = -1.8208e-20, cumulative = -4.76332e-20
GAMG:  Solving for Psi_z, Initial residual = 7.08669e-06, Final residual = 5.00433e-07, No Iterations 3
DICPCG:  Solving for p, Initial residual = 0.000137786, Final residual = 9.70027e-07, No Iterations 253
time step continuity errors : sum local = 4.30628e-12, global = -1.42624e-20, cumulative = -6.18956e-20
GAMG:  Solving for Psi_z, Initial residual = 5.00713e-07, Final residual = 5.00713e-07, No Iterations 0
ExecutionTime = 22.94 s  ClockTime = 24 s

Time = 0.54

Courant Number mean: 0.0654879 max: 0.142615
smoothSolver:  Solving for Ux, Initial residual = 0.000272706, Final residual = 3.04135e-07, No Iterations 1
smoothSolver:  Solving for Uy, Initial residual = 0.000301872, Final residual = 2.89264e-07, No Iterations 1
DICPCG:  Solving for p, Initial residual = 0.00163603, Final residual = 8.0057e-05, No Iterations 49
time step continuity errors : sum local = 3.60569e-10, global = 2.84496e-20, cumulative = -3.34459e-20
GAMG:  Solving for Psi_z, Initial residual = 7.08567e-06, Final residual = 5.00439e-07, No Iterations 3
DICPCG:  Solving for p, Initial residual = 0.000135774, Final residual = 9.52651e-07, No Iterations 253
time step continuity errors : sum local = 4.22358e-12, global = -1.87733e-20, cumulative = -5.22192e-20
GAMG:  Solving for Psi_z, Initial residual = 5.00717e-07, Final residual = 5.00717e-07, No Iterations 0
ExecutionTime = 23.33 s  ClockTime = 24 s

Time = 0.55

Courant Number mean: 0.0654983 max: 0.142622
smoothSolver:  Solving for Ux, Initial residual = 0.000272327, Final residual = 3.03591e-07, No Iterations 1
smoothSolver:  Solving for Uy, Initial residual = 0.000301505, Final residual = 2.88788e-07, No Iterations 1
DICPCG:  Solving for p, Initial residual = 0.00156817, Final residual = 7.61386e-05, No Iterations 50
time step continuity errors : sum local = 3.42829e-10, global = 2.1689e-20, cumulative = -3.05302e-20
GAMG:  Solving for Psi_z, Initial residual = 7.08467e-06, Final residual = 5.00445e-07, No Iterations 3
DICPCG:  Solving for p, Initial residual = 0.000133506, Final residual = 9.08741e-07, No Iterations 253
time step continuity errors : sum local = 4.02526e-12, global = 1.70411e-20, cumulative = -1.34891e-20
GAMG:  Solving for Psi_z, Initial residual = 5.00722e-07, Final residual = 5.00722e-07, No Iterations 0
ExecutionTime = 23.72 s  ClockTime = 24 s

Time = 0.56

Courant Number mean: 0.0655088 max: 0.142629
smoothSolver:  Solving for Ux, Initial residual = 0.000271951, Final residual = 3.03053e-07, No Iterations 1
smoothSolver:  Solving for Uy, Initial residual = 0.000301142, Final residual = 2.88315e-07, No Iterations 1
DICPCG:  Solving for p, Initial residual = 0.00156154, Final residual = 7.57066e-05, No Iterations 50
time step continuity errors : sum local = 3.40506e-10, global = -8.67112e-21, cumulative = -2.21602e-20
GAMG:  Solving for Psi_z, Initial residual = 7.08368e-06, Final residual = 5.00451e-07, No Iterations 3
DICPCG:  Solving for p, Initial residual = 0.000133088, Final residual = 9.9608e-07, No Iterations 253
time step continuity errors : sum local = 4.40519e-12, global = 2.00253e-20, cumulative = -2.13493e-21
GAMG:  Solving for Psi_z, Initial residual = 5.00728e-07, Final residual = 5.00728e-07, No Iterations 0
ExecutionTime = 24.11 s  ClockTime = 25 s

Time = 0.57

Courant Number mean: 0.0655192 max: 0.142635
smoothSolver:  Solving for Ux, Initial residual = 0.00027158, Final residual = 3.0252e-07, No Iterations 1
smoothSolver:  Solving for Uy, Initial residual = 0.000300783, Final residual = 2.87851e-07, No Iterations 1
DICPCG:  Solving for p, Initial residual = 0.00154469, Final residual = 7.61006e-05, No Iterations 50
time step continuity errors : sum local = 3.41847e-10, global = 2.02416e-20, cumulative = 1.81067e-20
GAMG:  Solving for Psi_z, Initial residual = 7.08274e-06, Final residual = 5.00458e-07, No Iterations 3
DICPCG:  Solving for p, Initial residual = 0.000133531, Final residual = 9.8958e-07, No Iterations 253
time step continuity errors : sum local = 4.37182e-12, global = -5.7413e-21, cumulative = 1.23654e-20
GAMG:  Solving for Psi_z, Initial residual = 5.00733e-07, Final residual = 5.00733e-07, No Iterations 0
ExecutionTime = 24.5 s  ClockTime = 25 s

Time = 0.58

Courant Number mean: 0.0655297 max: 0.142645
smoothSolver:  Solving for Ux, Initial residual = 0.000271212, Final residual = 3.01992e-07, No Iterations 1
smoothSolver:  Solving for Uy, Initial residual = 0.000300429, Final residual = 2.87396e-07, No Iterations 1
DICPCG:  Solving for p, Initial residual = 0.00152431, Final residual = 7.61848e-05, No Iterations 50
time step continuity errors : sum local = 3.4183e-10, global = -1.54084e-20, cumulative = -3.04304e-21
GAMG:  Solving for Psi_z, Initial residual = 7.08182e-06, Final residual = 5.00466e-07, No Iterations 3
DICPCG:  Solving for p, Initial residual = 0.000134177, Final residual = 9.83221e-07, No Iterations 253
time step continuity errors : sum local = 4.33985e-12, global = -1.18997e-21, cumulative = -4.23301e-21
GAMG:  Solving for Psi_z, Initial residual = 5.00739e-07, Final residual = 5.00739e-07, No Iterations 0
ExecutionTime = 24.9 s  ClockTime = 26 s

Time = 0.59

Courant Number mean: 0.0655401 max: 0.142658
smoothSolver:  Solving for Ux, Initial residual = 0.000270849, Final residual = 3.01469e-07, No Iterations 1
smoothSolver:  Solving for Uy, Initial residual = 0.000300078, Final residual = 2.86949e-07, No Iterations 1
DICPCG:  Solving for p, Initial residual = 0.0015361, Final residual = 7.64917e-05, No Iterations 50
time step continuity errors : sum local = 3.42818e-10, global = -1.70689e-20, cumulative = -2.13019e-20
GAMG:  Solving for Psi_z, Initial residual = 7.08093e-06, Final residual = 5.00474e-07, No Iterations 3
DICPCG:  Solving for p, Initial residual = 0.000133292, Final residual = 9.43061e-07, No Iterations 254
time step continuity errors : sum local = 4.1583e-12, global = -1.64443e-20, cumulative = -3.77463e-20
GAMG:  Solving for Psi_z, Initial residual = 5.00746e-07, Final residual = 5.00746e-07, No Iterations 0
ExecutionTime = 25.28 s  ClockTime = 26 s

Time = 0.6

Courant Number mean: 0.0655506 max: 0.14267
smoothSolver:  Solving for Ux, Initial residual = 0.000270489, Final residual = 3.0095e-07, No Iterations 1
smoothSolver:  Solving for Uy, Initial residual = 0.000299732, Final residual = 2.86508e-07, No Iterations 1
DICPCG:  Solving for p, Initial residual = 0.00150299, Final residual = 7.06299e-05, No Iterations 51
time step continuity errors : sum local = 3.16682e-10, global = -1.91357e-20, cumulative = -5.6882e-20
GAMG:  Solving for Psi_z, Initial residual = 7.08008e-06, Final residual = 5.00483e-07, No Iterations 3
DICPCG:  Solving for p, Initial residual = 0.000129921, Final residual = 9.37018e-07, No Iterations 253
time step continuity errors : sum local = 4.12899e-12, global = 1.31939e-20, cumulative = -4.36881e-20
GAMG:  Solving for Psi_z, Initial residual = 5.00754e-07, Final residual = 5.00754e-07, No Iterations 0
ExecutionTime = 25.67 s  ClockTime = 26 s

Time = 0.61

Courant Number mean: 0.065561 max: 0.142682
smoothSolver:  Solving for Ux, Initial residual = 0.000270134, Final residual = 3.00437e-07, No Iterations 1
smoothSolver:  Solving for Uy, Initial residual = 0.000299388, Final residual = 2.86076e-07, No Iterations 1
DICPCG:  Solving for p, Initial residual = 0.00147517, Final residual = 6.98005e-05, No Iterations 51
time step continuity errors : sum local = 3.12715e-10, global = 2.79835e-20, cumulative = -1.57046e-20
GAMG:  Solving for Psi_z, Initial residual = 7.0793e-06, Final residual = 5.00493e-07, No Iterations 3
DICPCG:  Solving for p, Initial residual = 0.000131688, Final residual = 9.75851e-07, No Iterations 253
time step continuity errors : sum local = 4.29435e-12, global = -7.63503e-21, cumulative = -2.33396e-20
GAMG:  Solving for Psi_z, Initial residual = 5.00763e-07, Final residual = 5.00763e-07, No Iterations 0
ExecutionTime = 26.06 s  ClockTime = 27 s

Time = 0.62

Courant Number mean: 0.0655715 max: 0.142694
smoothSolver:  Solving for Ux, Initial residual = 0.000269782, Final residual = 2.99929e-07, No Iterations 1
smoothSolver:  Solving for Uy, Initial residual = 0.000299051, Final residual = 2.85652e-07, No Iterations 1
DICPCG:  Solving for p, Initial residual = 0.00146523, Final residual = 6.92438e-05, No Iterations 51
time step continuity errors : sum local = 3.09964e-10, global = 5.69633e-21, cumulative = -1.76433e-20
GAMG:  Solving for Psi_z, Initial residual = 7.07853e-06, Final residual = 5.00504e-07, No Iterations 3
DICPCG:  Solving for p, Initial residual = 0.000131518, Final residual = 9.93506e-07, No Iterations 252
time step continuity errors : sum local = 4.36999e-12, global = 1.53463e-20, cumulative = -2.29696e-21
GAMG:  Solving for Psi_z, Initial residual = 5.00773e-07, Final residual = 5.00773e-07, No Iterations 0
ExecutionTime = 26.47 s  ClockTime = 27 s

Time = 0.63

Courant Number mean: 0.0655819 max: 0.142706
smoothSolver:  Solving for Ux, Initial residual = 0.000269434, Final residual = 2.99426e-07, No Iterations 1
smoothSolver:  Solving for Uy, Initial residual = 0.000298717, Final residual = 2.85235e-07, No Iterations 1
DICPCG:  Solving for p, Initial residual = 0.00145599, Final residual = 6.81354e-05, No Iterations 51
time step continuity errors : sum local = 3.0479e-10, global = -7.80127e-22, cumulative = -3.07709e-21
GAMG:  Solving for Psi_z, Initial residual = 7.07782e-06, Final residual = 5.00515e-07, No Iterations 3
DICPCG:  Solving for p, Initial residual = 0.000131071, Final residual = 9.64374e-07, No Iterations 253
time step continuity errors : sum local = 4.23674e-12, global = -4.5515e-20, cumulative = -4.85921e-20
GAMG:  Solving for Psi_z, Initial residual = 5.00784e-07, Final residual = 5.00784e-07, No Iterations 0
ExecutionTime = 26.87 s  ClockTime = 28 s

Time = 0.64

Courant Number mean: 0.0655923 max: 0.142717
smoothSolver:  Solving for Ux, Initial residual = 0.00026909, Final residual = 2.98926e-07, No Iterations 1
smoothSolver:  Solving for Uy, Initial residual = 0.000298388, Final residual = 2.84824e-07, No Iterations 1
DICPCG:  Solving for p, Initial residual = 0.00144926, Final residual = 6.75373e-05, No Iterations 51
time step continuity errors : sum local = 3.01875e-10, global = -1.64214e-20, cumulative = -6.50134e-20
GAMG:  Solving for Psi_z, Initial residual = 7.07712e-06, Final residual = 5.00528e-07, No Iterations 3
DICPCG:  Solving for p, Initial residual = 0.00013084, Final residual = 9.88942e-07, No Iterations 252
time step continuity errors : sum local = 4.34267e-12, global = -2.98468e-20, cumulative = -9.48602e-20
GAMG:  Solving for Psi_z, Initial residual = 5.00795e-07, Final residual = 5.00795e-07, No Iterations 0
ExecutionTime = 27.26 s  ClockTime = 28 s

Time = 0.65

Courant Number mean: 0.0656027 max: 0.142728
smoothSolver:  Solving for Ux, Initial residual = 0.000268749, Final residual = 2.98432e-07, No Iterations 1
smoothSolver:  Solving for Uy, Initial residual = 0.000298061, Final residual = 2.8442e-07, No Iterations 1
DICPCG:  Solving for p, Initial residual = 0.00144662, Final residual = 6.8164e-05, No Iterations 51
time step continuity errors : sum local = 3.04354e-10, global = 3.0277e-20, cumulative = -6.45832e-20
GAMG:  Solving for Psi_z, Initial residual = 7.07645e-06, Final residual = 5.00541e-07, No Iterations 3
DICPCG:  Solving for p, Initial residual = 0.000131329, Final residual = 9.94644e-07, No Iterations 257
time step continuity errors : sum local = 4.36382e-12, global = -1.44346e-20, cumulative = -7.90178e-20
GAMG:  Solving for Psi_z, Initial residual = 5.00808e-07, Final residual = 5.00808e-07, No Iterations 0
ExecutionTime = 27.68 s  ClockTime = 28 s

Time = 0.66

Courant Number mean: 0.065613 max: 0.142739
smoothSolver:  Solving for Ux, Initial residual = 0.000268412, Final residual = 2.97942e-07, No Iterations 1
smoothSolver:  Solving for Uy, Initial residual = 0.000297738, Final residual = 2.84022e-07, No Iterations 1
DICPCG:  Solving for p, Initial residual = 0.0014513, Final residual = 6.98027e-05, No Iterations 51
time step continuity errors : sum local = 3.11267e-10, global = 1.79103e-20, cumulative = -6.11075e-20
GAMG:  Solving for Psi_z, Initial residual = 7.07581e-06, Final residual = 5.00556e-07, No Iterations 3
DICPCG:  Solving for p, Initial residual = 0.000131299, Final residual = 9.4202e-07, No Iterations 253
time step continuity errors : sum local = 4.13018e-12, global = 7.98497e-21, cumulative = -5.31225e-20
GAMG:  Solving for Psi_z, Initial residual = 5.00822e-07, Final residual = 5.00822e-07, No Iterations 0
ExecutionTime = 28.1 s  ClockTime = 29 s

Time = 0.67

Courant Number mean: 0.0656234 max: 0.142749
smoothSolver:  Solving for Ux, Initial residual = 0.000268077, Final residual = 2.97457e-07, No Iterations 1
smoothSolver:  Solving for Uy, Initial residual = 0.000297418, Final residual = 2.83631e-07, No Iterations 1
DICPCG:  Solving for p, Initial residual = 0.00144888, Final residual = 6.94078e-05, No Iterations 51
time step continuity errors : sum local = 3.09215e-10, global = -8.05989e-21, cumulative = -6.11824e-20
GAMG:  Solving for Psi_z, Initial residual = 7.07517e-06, Final residual = 5.00572e-07, No Iterations 3
DICPCG:  Solving for p, Initial residual = 0.000130924, Final residual = 9.77108e-07, No Iterations 253
time step continuity errors : sum local = 4.28029e-12, global = 1.14962e-20, cumulative = -4.96862e-20
GAMG:  Solving for Psi_z, Initial residual = 5.00838e-07, Final residual = 5.00838e-07, No Iterations 0
ExecutionTime = 28.51 s  ClockTime = 29 s

Time = 0.68

Courant Number mean: 0.0656338 max: 0.142759
smoothSolver:  Solving for Ux, Initial residual = 0.000267746, Final residual = 2.96977e-07, No Iterations 1
smoothSolver:  Solving for Uy, Initial residual = 0.000297102, Final residual = 2.83248e-07, No Iterations 1
DICPCG:  Solving for p, Initial residual = 0.00143852, Final residual = 6.7915e-05, No Iterations 51
time step continuity errors : sum local = 3.02302e-10, global = -1.47918e-20, cumulative = -6.4478e-20
GAMG:  Solving for Psi_z, Initial residual = 7.07456e-06, Final residual = 5.0059e-07, No Iterations 3
DICPCG:  Solving for p, Initial residual = 0.000131644, Final residual = 9.56421e-07, No Iterations 253
time step continuity errors : sum local = 4.18722e-12, global = -1.09744e-21, cumulative = -6.55755e-20
GAMG:  Solving for Psi_z, Initial residual = 5.00856e-07, Final residual = 5.00856e-07, No Iterations 0
ExecutionTime = 28.92 s  ClockTime = 30 s

Time = 0.69

Courant Number mean: 0.0656441 max: 0.142769
smoothSolver:  Solving for Ux, Initial residual = 0.000267417, Final residual = 2.965e-07, No Iterations 1
smoothSolver:  Solving for Uy, Initial residual = 0.000296793, Final residual = 2.82873e-07, No Iterations 1
DICPCG:  Solving for p, Initial residual = 0.00147433, Final residual = 7.0714e-05, No Iterations 51
time step continuity errors : sum local = 3.14768e-10, global = -1.69174e-20, cumulative = -8.24929e-20
GAMG:  Solving for Psi_z, Initial residual = 7.07393e-06, Final residual = 5.00609e-07, No Iterations 3
DICPCG:  Solving for p, Initial residual = 0.000128961, Final residual = 9.88484e-07, No Iterations 291
time step continuity errors : sum local = 4.32427e-12, global = 1.18184e-20, cumulative = -7.06744e-20
GAMG:  Solving for Psi_z, Initial residual = 5.00875e-07, Final residual = 5.00875e-07, No Iterations 0
ExecutionTime = 29.37 s  ClockTime = 30 s

Time = 0.7

Courant Number mean: 0.0656545 max: 0.142779
smoothSolver:  Solving for Ux, Initial residual = 0.000267093, Final residual = 2.96026e-07, No Iterations 1
smoothSolver:  Solving for Uy, Initial residual = 0.000296478, Final residual = 2.82491e-07, No Iterations 1
DICPCG:  Solving for p, Initial residual = 0.00147256, Final residual = 7.13431e-05, No Iterations 51
time step continuity errors : sum local = 3.17399e-10, global = 9.4504e-21, cumulative = -6.1224e-20
GAMG:  Solving for Psi_z, Initial residual = 7.07331e-06, Final residual = 5.00632e-07, No Iterations 3
DICPCG:  Solving for p, Initial residual = 0.000129395, Final residual = 9.49756e-07, No Iterations 287
time step continuity errors : sum local = 4.15052e-12, global = -1.5112e-20, cumulative = -7.6336e-20
GAMG:  Solving for Psi_z, Initial residual = 5.00898e-07, Final residual = 5.00898e-07, No Iterations 0
ExecutionTime = 29.81 s  ClockTime = 31 s

Time = 0.71

Courant Number mean: 0.0656648 max: 0.142789
smoothSolver:  Solving for Ux, Initial residual = 0.000266772, Final residual = 2.95558e-07, No Iterations 1
smoothSolver:  Solving for Uy, Initial residual = 0.000296163, Final residual = 2.82112e-07, No Iterations 1
DICPCG:  Solving for p, Initial residual = 0.00145271, Final residual = 6.80186e-05, No Iterations 52
time step continuity errors : sum local = 3.03106e-10, global = -7.42125e-21, cumulative = -8.37573e-20
GAMG:  Solving for Psi_z, Initial residual = 7.0727e-06, Final residual = 5.00655e-07, No Iterations 3
DICPCG:  Solving for p, Initial residual = 0.000129433, Final residual = 9.46876e-07, No Iterations 286
time step continuity errors : sum local = 4.1348e-12, global = -2.6914e-20, cumulative = -1.10671e-19
GAMG:  Solving for Psi_z, Initial residual = 5.00923e-07, Final residual = 5.00923e-07, No Iterations 0
ExecutionTime = 30.25 s  ClockTime = 31 s

Time = 0.72

Courant Number mean: 0.0656751 max: 0.142798
smoothSolver:  Solving for Ux, Initial residual = 0.000266456, Final residual = 2.95092e-07, No Iterations 1
smoothSolver:  Solving for Uy, Initial residual = 0.000295843, Final residual = 2.81729e-07, No Iterations 1
DICPCG:  Solving for p, Initial residual = 0.00143116, Final residual = 6.81614e-05, No Iterations 51
time step continuity errors : sum local = 3.02663e-10, global = -9.83476e-21, cumulative = -1.20506e-19
GAMG:  Solving for Psi_z, Initial residual = 7.07208e-06, Final residual = 5.00681e-07, No Iterations 3
DICPCG:  Solving for p, Initial residual = 0.000129007, Final residual = 9.61524e-07, No Iterations 255
time step continuity errors : sum local = 4.19628e-12, global = -1.32277e-20, cumulative = -1.33734e-19
GAMG:  Solving for Psi_z, Initial residual = 5.0095e-07, Final residual = 5.0095e-07, No Iterations 0
ExecutionTime = 30.65 s  ClockTime = 31 s

Time = 0.73

Courant Number mean: 0.0656854 max: 0.142807
smoothSolver:  Solving for Ux, Initial residual = 0.00026614, Final residual = 2.94633e-07, No Iterations 1
smoothSolver:  Solving for Uy, Initial residual = 0.000295542, Final residual = 2.81372e-07, No Iterations 1
DICPCG:  Solving for p, Initial residual = 0.00141501, Final residual = 6.71783e-05, No Iterations 51
time step continuity errors : sum local = 2.98158e-10, global = 9.19124e-21, cumulative = -1.24543e-19
GAMG:  Solving for Psi_z, Initial residual = 7.07146e-06, Final residual = 5.00711e-07, No Iterations 3
DICPCG:  Solving for p, Initial residual = 0.000129905, Final residual = 9.99267e-07, No Iterations 257
time step continuity errors : sum local = 4.35763e-12, global = 4.91605e-21, cumulative = -1.19626e-19
GAMG:  Solving for Psi_z, Initial residual = 5.00983e-07, Final residual = 5.00983e-07, No Iterations 0
ExecutionTime = 31.05 s  ClockTime = 32 s

Time = 0.74

Courant Number mean: 0.0656956 max: 0.142815
smoothSolver:  Solving for Ux, Initial residual = 0.000265827, Final residual = 2.94178e-07, No Iterations 1
smoothSolver:  Solving for Uy, Initial residual = 0.000295245, Final residual = 2.81021e-07, No Iterations 1
DICPCG:  Solving for p, Initial residual = 0.00141456, Final residual = 6.75581e-05, No Iterations 51
time step continuity errors : sum local = 2.99616e-10, global = -2.89125e-20, cumulative = -1.48539e-19
GAMG:  Solving for Psi_z, Initial residual = 7.07086e-06, Final residual = 5.00745e-07, No Iterations 3
DICPCG:  Solving for p, Initial residual = 0.000130002, Final residual = 9.4982e-07, No Iterations 255
time step continuity errors : sum local = 4.13982e-12, global = 1.15112e-20, cumulative = -1.37028e-19
GAMG:  Solving for Psi_z, Initial residual = 5.01016e-07, Final residual = 5.01016e-07, No Iterations 0
ExecutionTime = 31.44 s  ClockTime = 32 s

Time = 0.75

Courant Number mean: 0.0657059 max: 0.142824
smoothSolver:  Solving for Ux, Initial residual = 0.000265517, Final residual = 2.93724e-07, No Iterations 1
smoothSolver:  Solving for Uy, Initial residual = 0.000294951, Final residual = 2.80674e-07, No Iterations 1
DICPCG:  Solving for p, Initial residual = 0.00140919, Final residual = 6.65195e-05, No Iterations 51
time step continuity errors : sum local = 2.94942e-10, global = 1.7093e-20, cumulative = -1.19935e-19
GAMG:  Solving for Psi_z, Initial residual = 7.07023e-06, Final residual = 5.0078e-07, No Iterations 3
DICPCG:  Solving for p, Initial residual = 0.000130638, Final residual = 9.39941e-07, No Iterations 294
time step continuity errors : sum local = 4.09349e-12, global = -2.59003e-20, cumulative = -1.45835e-19
GAMG:  Solving for Psi_z, Initial residual = 5.01051e-07, Final residual = 5.01051e-07, No Iterations 0
ExecutionTime = 31.9 s  ClockTime = 33 s

Time = 0.76

Courant Number mean: 0.0657161 max: 0.142832
smoothSolver:  Solving for Ux, Initial residual = 0.00026521, Final residual = 2.93276e-07, No Iterations 1
smoothSolver:  Solving for Uy, Initial residual = 0.000294659, Final residual = 2.80332e-07, No Iterations 1
DICPCG:  Solving for p, Initial residual = 0.00142456, Final residual = 6.69669e-05, No Iterations 51
time step continuity errors : sum local = 2.96639e-10, global = 5.78573e-20, cumulative = -8.79779e-20
GAMG:  Solving for Psi_z, Initial residual = 7.06961e-06, Final residual = 5.00815e-07, No Iterations 3
DICPCG:  Solving for p, Initial residual = 0.0001262, Final residual = 9.42003e-07, No Iterations 253
time step continuity errors : sum local = 4.10128e-12, global = 1.1141e-20, cumulative = -7.68369e-20
GAMG:  Solving for Psi_z, Initial residual = 5.01085e-07, Final residual = 5.01085e-07, No Iterations 0
ExecutionTime = 32.3 s  ClockTime = 33 s

Time = 0.77

Courant Number mean: 0.0657264 max: 0.14284
smoothSolver:  Solving for Ux, Initial residual = 0.000264906, Final residual = 2.92831e-07, No Iterations 1
smoothSolver:  Solving for Uy, Initial residual = 0.00029437, Final residual = 2.79996e-07, No Iterations 1
DICPCG:  Solving for p, Initial residual = 0.00142122, Final residual = 6.55173e-05, No Iterations 51
time step continuity errors : sum local = 2.90219e-10, global = 6.41497e-21, cumulative = -7.04219e-20
GAMG:  Solving for Psi_z, Initial residual = 7.06899e-06, Final residual = 5.00851e-07, No Iterations 3
DICPCG:  Solving for p, Initial residual = 0.000125638, Final residual = 9.53141e-07, No Iterations 252
time step continuity errors : sum local = 4.1468e-12, global = 1.778e-20, cumulative = -5.26419e-20
GAMG:  Solving for Psi_z, Initial residual = 5.01119e-07, Final residual = 5.01119e-07, No Iterations 0
ExecutionTime = 32.68 s  ClockTime = 33 s

Time = 0.78

Courant Number mean: 0.0657366 max: 0.142847
smoothSolver:  Solving for Ux, Initial residual = 0.000264604, Final residual = 2.92389e-07, No Iterations 1
smoothSolver:  Solving for Uy, Initial residual = 0.000294082, Final residual = 2.79662e-07, No Iterations 1
DICPCG:  Solving for p, Initial residual = 0.00139352, Final residual = 6.78317e-05, No Iterations 51
time step continuity errors : sum local = 3.00115e-10, global = 5.28855e-20, cumulative = 2.43534e-22
GAMG:  Solving for Psi_z, Initial residual = 7.06837e-06, Final residual = 5.00886e-07, No Iterations 3
DICPCG:  Solving for p, Initial residual = 0.000129401, Final residual = 9.61622e-07, No Iterations 253
time step continuity errors : sum local = 4.18165e-12, global = -1.01662e-20, cumulative = -9.92267e-21
GAMG:  Solving for Psi_z, Initial residual = 5.01153e-07, Final residual = 5.01153e-07, No Iterations 0
ExecutionTime = 33.08 s  ClockTime = 34 s

Time = 0.79

Courant Number mean: 0.0657468 max: 0.142855
smoothSolver:  Solving for Ux, Initial residual = 0.000264305, Final residual = 2.91951e-07, No Iterations 1
smoothSolver:  Solving for Uy, Initial residual = 0.000293796, Final residual = 2.79332e-07, No Iterations 1
DICPCG:  Solving for p, Initial residual = 0.00138731, Final residual = 6.70275e-05, No Iterations 51
time step continuity errors : sum local = 2.96391e-10, global = 1.10325e-20, cumulative = 1.10979e-21
GAMG:  Solving for Psi_z, Initial residual = 7.06775e-06, Final residual = 5.00923e-07, No Iterations 3
DICPCG:  Solving for p, Initial residual = 0.000128301, Final residual = 9.25176e-07, No Iterations 255
time step continuity errors : sum local = 4.01982e-12, global = -1.58725e-20, cumulative = -1.47627e-20
GAMG:  Solving for Psi_z, Initial residual = 5.01188e-07, Final residual = 5.01188e-07, No Iterations 0
ExecutionTime = 33.48 s  ClockTime = 34 s

Time = 0.8

Courant Number mean: 0.0657569 max: 0.142862
smoothSolver:  Solving for Ux, Initial residual = 0.000264007, Final residual = 2.91515e-07, No Iterations 1
smoothSolver:  Solving for Uy, Initial residual = 0.000293514, Final residual = 2.79007e-07, No Iterations 1
DICPCG:  Solving for p, Initial residual = 0.00140937, Final residual = 6.66264e-05, No Iterations 51
time step continuity errors : sum local = 2.9444e-10, global = 3.17902e-20, cumulative = 1.70275e-20
GAMG:  Solving for Psi_z, Initial residual = 7.06711e-06, Final residual = 5.0096e-07, No Iterations 3
DICPCG:  Solving for p, Initial residual = 0.000124026, Final residual = 9.7211e-07, No Iterations 253
time step continuity errors : sum local = 4.22107e-12, global = 9.03322e-21, cumulative = 2.60607e-20
GAMG:  Solving for Psi_z, Initial residual = 5.01223e-07, Final residual = 5.01223e-07, No Iterations 0
ExecutionTime = 33.86 s  ClockTime = 35 s

Time = 0.81

Courant Number mean: 0.0657671 max: 0.142869
smoothSolver:  Solving for Ux, Initial residual = 0.000263713, Final residual = 2.91083e-07, No Iterations 1
smoothSolver:  Solving for Uy, Initial residual = 0.000293234, Final residual = 2.78688e-07, No Iterations 1
DICPCG:  Solving for p, Initial residual = 0.00140294, Final residual = 6.61918e-05, No Iterations 51
time step continuity errors : sum local = 2.92345e-10, global = -1.45292e-20, cumulative = 1.15314e-20
GAMG:  Solving for Psi_z, Initial residual = 7.06649e-06, Final residual = 5.00998e-07, No Iterations 3
DICPCG:  Solving for p, Initial residual = 0.00012385, Final residual = 9.77285e-07, No Iterations 257
time step continuity errors : sum local = 4.24078e-12, global = -1.62864e-20, cumulative = -4.75493e-21
GAMG:  Solving for Psi_z, Initial residual = 5.0126e-07, Final residual = 5.0126e-07, No Iterations 0
ExecutionTime = 34.26 s  ClockTime = 35 s

Time = 0.82

Courant Number mean: 0.0657772 max: 0.142875
smoothSolver:  Solving for Ux, Initial residual = 0.00026342, Final residual = 2.90655e-07, No Iterations 1
smoothSolver:  Solving for Uy, Initial residual = 0.000292956, Final residual = 2.78375e-07, No Iterations 1
DICPCG:  Solving for p, Initial residual = 0.00142284, Final residual = 6.5865e-05, No Iterations 51
time step continuity errors : sum local = 2.90725e-10, global = -1.40139e-20, cumulative = -1.87689e-20
GAMG:  Solving for Psi_z, Initial residual = 7.06591e-06, Final residual = 5.01035e-07, No Iterations 3
DICPCG:  Solving for p, Initial residual = 0.000121328, Final residual = 9.96018e-07, No Iterations 248
time step continuity errors : sum local = 4.32265e-12, global = 2.23577e-20, cumulative = 3.5888e-21
GAMG:  Solving for Psi_z, Initial residual = 5.01296e-07, Final residual = 5.01296e-07, No Iterations 0
ExecutionTime = 34.64 s  ClockTime = 35 s

Time = 0.83

Courant Number mean: 0.0657874 max: 0.142882
smoothSolver:  Solving for Ux, Initial residual = 0.000263129, Final residual = 2.90229e-07, No Iterations 1
smoothSolver:  Solving for Uy, Initial residual = 0.000292677, Final residual = 2.78062e-07, No Iterations 1
DICPCG:  Solving for p, Initial residual = 0.00143889, Final residual = 6.94068e-05, No Iterations 50
time step continuity errors : sum local = 3.05831e-10, global = 3.10055e-20, cumulative = 3.45943e-20
GAMG:  Solving for Psi_z, Initial residual = 7.06534e-06, Final residual = 5.01073e-07, No Iterations 3
DICPCG:  Solving for p, Initial residual = 0.000123918, Final residual = 9.99486e-07, No Iterations 269
time step continuity errors : sum local = 4.33105e-12, global = -6.46258e-21, cumulative = 2.81318e-20
GAMG:  Solving for Psi_z, Initial residual = 5.01334e-07, Final residual = 5.01334e-07, No Iterations 0
ExecutionTime = 35.03 s  ClockTime = 36 s

Time = 0.84

Courant Number mean: 0.0657976 max: 0.142888
smoothSolver:  Solving for Ux, Initial residual = 0.000262841, Final residual = 2.89806e-07, No Iterations 1
smoothSolver:  Solving for Uy, Initial residual = 0.00029241, Final residual = 2.77762e-07, No Iterations 1
DICPCG:  Solving for p, Initial residual = 0.00139313, Final residual = 6.67216e-05, No Iterations 51
time step continuity errors : sum local = 2.9403e-10, global = 9.49343e-22, cumulative = 2.90811e-20
GAMG:  Solving for Psi_z, Initial residual = 7.0648e-06, Final residual = 5.01112e-07, No Iterations 3
DICPCG:  Solving for p, Initial residual = 0.000123331, Final residual = 9.45525e-07, No Iterations 253
time step continuity errors : sum local = 4.10112e-12, global = -2.72516e-20, cumulative = 1.82956e-21
[...]
GAMG:  Solving for Psi_z, Initial residual = 5.37577e-07, Final residual = 5.37577e-07, No Iterations 0
ExecutionTime = 783.43 s  ClockTime = 803 s

Time = 19.8

Courant Number mean: 0.0701434 max: 0.136617
smoothSolver:  Solving for Ux, Initial residual = 0.000102789, Final residual = 1.05906e-07, No Iterations 1
smoothSolver:  Solving for Uy, Initial residual = 0.000109432, Final residual = 1.07207e-07, No Iterations 1
DICPCG:  Solving for p, Initial residual = 0.000774945, Final residual = 3.74263e-05, No Iterations 57
time step continuity errors : sum local = 1.14539e-10, global = 1.17984e-19, cumulative = -6.86224e-19
GAMG:  Solving for Psi_z, Initial residual = 5.69426e-06, Final residual = 5.36939e-07, No Iterations 2
DICPCG:  Solving for p, Initial residual = 8.55596e-05, Final residual = 9.3552e-07, No Iterations 241
time step continuity errors : sum local = 2.84844e-12, global = 2.67365e-20, cumulative = -6.59487e-19
GAMG:  Solving for Psi_z, Initial residual = 5.37005e-07, Final residual = 5.37005e-07, No Iterations 0
ExecutionTime = 783.81 s  ClockTime = 804 s

Time = 19.81

Courant Number mean: 0.0701434 max: 0.136637
smoothSolver:  Solving for Ux, Initial residual = 0.000102716, Final residual = 1.05809e-07, No Iterations 1
smoothSolver:  Solving for Uy, Initial residual = 0.000109364, Final residual = 1.07115e-07, No Iterations 1
DICPCG:  Solving for p, Initial residual = 0.000775612, Final residual = 3.81828e-05, No Iterations 56
time step continuity errors : sum local = 1.16871e-10, global = -1.98982e-20, cumulative = -6.79385e-19
GAMG:  Solving for Psi_z, Initial residual = 5.69082e-06, Final residual = 5.36367e-07, No Iterations 2
DICPCG:  Solving for p, Initial residual = 8.72859e-05, Final residual = 9.3022e-07, No Iterations 241
time step continuity errors : sum local = 2.83438e-12, global = -6.08673e-20, cumulative = -7.40253e-19
GAMG:  Solving for Psi_z, Initial residual = 5.36433e-07, Final residual = 5.36433e-07, No Iterations 0
ExecutionTime = 784.2 s  ClockTime = 804 s

Time = 19.82

Courant Number mean: 0.0701433 max: 0.136658
smoothSolver:  Solving for Ux, Initial residual = 0.000102644, Final residual = 1.05712e-07, No Iterations 1
smoothSolver:  Solving for Uy, Initial residual = 0.000109295, Final residual = 1.07024e-07, No Iterations 1
DICPCG:  Solving for p, Initial residual = 0.000770954, Final residual = 3.59914e-05, No Iterations 57
time step continuity errors : sum local = 1.10195e-10, global = -1.19226e-19, cumulative = -8.59479e-19
GAMG:  Solving for Psi_z, Initial residual = 5.6873e-06, Final residual = 5.35797e-07, No Iterations 2
DICPCG:  Solving for p, Initial residual = 8.48945e-05, Final residual = 9.46454e-07, No Iterations 241
time step continuity errors : sum local = 2.8832e-12, global = 1.40695e-19, cumulative = -7.18783e-19
GAMG:  Solving for Psi_z, Initial residual = 5.35863e-07, Final residual = 5.35863e-07, No Iterations 0
ExecutionTime = 784.6 s  ClockTime = 804 s

Time = 19.83

Courant Number mean: 0.0701433 max: 0.136678
smoothSolver:  Solving for Ux, Initial residual = 0.000102573, Final residual = 1.05616e-07, No Iterations 1
smoothSolver:  Solving for Uy, Initial residual = 0.000109226, Final residual = 1.06931e-07, No Iterations 1
DICPCG:  Solving for p, Initial residual = 0.000771071, Final residual = 3.68519e-05, No Iterations 57
time step continuity errors : sum local = 1.12836e-10, global = 7.7163e-20, cumulative = -6.4162e-19
GAMG:  Solving for Psi_z, Initial residual = 5.68376e-06, Final residual = 5.35227e-07, No Iterations 2
DICPCG:  Solving for p, Initial residual = 8.54453e-05, Final residual = 9.64459e-07, No Iterations 241
time step continuity errors : sum local = 2.94102e-12, global = -6.37828e-21, cumulative = -6.47998e-19
GAMG:  Solving for Psi_z, Initial residual = 5.35294e-07, Final residual = 5.35294e-07, No Iterations 0
ExecutionTime = 784.99 s  ClockTime = 805 s

Time = 19.84

Courant Number mean: 0.0701433 max: 0.136698
smoothSolver:  Solving for Ux, Initial residual = 0.000102502, Final residual = 1.0552e-07, No Iterations 1
smoothSolver:  Solving for Uy, Initial residual = 0.000109156, Final residual = 1.06838e-07, No Iterations 1
DICPCG:  Solving for p, Initial residual = 0.000772294, Final residual = 3.33768e-05, No Iterations 58
time step continuity errors : sum local = 1.02301e-10, global = 2.38602e-20, cumulative = -6.24138e-19
GAMG:  Solving for Psi_z, Initial residual = 5.68028e-06, Final residual = 5.34658e-07, No Iterations 2
DICPCG:  Solving for p, Initial residual = 8.13658e-05, Final residual = 9.92738e-07, No Iterations 241
time step continuity errors : sum local = 3.03e-12, global = -2.2625e-20, cumulative = -6.46763e-19
GAMG:  Solving for Psi_z, Initial residual = 5.34725e-07, Final residual = 5.34725e-07, No Iterations 0
ExecutionTime = 785.37 s  ClockTime = 805 s

Time = 19.85

Courant Number mean: 0.0701433 max: 0.136717
smoothSolver:  Solving for Ux, Initial residual = 0.000102432, Final residual = 1.05425e-07, No Iterations 1
smoothSolver:  Solving for Uy, Initial residual = 0.000109085, Final residual = 1.06744e-07, No Iterations 1
DICPCG:  Solving for p, Initial residual = 0.00077495, Final residual = 3.4869e-05, No Iterations 58
time step continuity errors : sum local = 1.06902e-10, global = 2.07811e-20, cumulative = -6.25982e-19
GAMG:  Solving for Psi_z, Initial residual = 5.67686e-06, Final residual = 5.3409e-07, No Iterations 2
DICPCG:  Solving for p, Initial residual = 8.21374e-05, Final residual = 9.87121e-07, No Iterations 242
time step continuity errors : sum local = 3.02527e-12, global = -2.19121e-19, cumulative = -8.45103e-19
GAMG:  Solving for Psi_z, Initial residual = 5.34158e-07, Final residual = 5.34158e-07, No Iterations 0
ExecutionTime = 785.75 s  ClockTime = 806 s

Time = 19.86

Courant Number mean: 0.0701433 max: 0.136737
smoothSolver:  Solving for Ux, Initial residual = 0.000102365, Final residual = 1.05332e-07, No Iterations 1
smoothSolver:  Solving for Uy, Initial residual = 0.000109013, Final residual = 1.06648e-07, No Iterations 1
DICPCG:  Solving for p, Initial residual = 0.000784172, Final residual = 3.52103e-05, No Iterations 59
time step continuity errors : sum local = 1.08052e-10, global = 6.98025e-20, cumulative = -7.75301e-19
GAMG:  Solving for Psi_z, Initial residual = 5.67345e-06, Final residual = 5.33523e-07, No Iterations 2
DICPCG:  Solving for p, Initial residual = 8.06237e-05, Final residual = 9.75254e-07, No Iterations 283
time step continuity errors : sum local = 2.96655e-12, global = 1.03137e-19, cumulative = -6.72164e-19
GAMG:  Solving for Psi_z, Initial residual = 5.33592e-07, Final residual = 5.33592e-07, No Iterations 0
ExecutionTime = 786.17 s  ClockTime = 806 s

Time = 19.87

Courant Number mean: 0.0701432 max: 0.136756
smoothSolver:  Solving for Ux, Initial residual = 0.0001023, Final residual = 1.05243e-07, No Iterations 1
smoothSolver:  Solving for Uy, Initial residual = 0.000108939, Final residual = 1.0655e-07, No Iterations 1
DICPCG:  Solving for p, Initial residual = 0.000782618, Final residual = 3.63826e-05, No Iterations 58
time step continuity errors : sum local = 1.11533e-10, global = -5.11094e-20, cumulative = -7.23273e-19
GAMG:  Solving for Psi_z, Initial residual = 5.67009e-06, Final residual = 5.32957e-07, No Iterations 2
DICPCG:  Solving for p, Initial residual = 8.182e-05, Final residual = 9.28271e-07, No Iterations 242
time step continuity errors : sum local = 2.82635e-12, global = 5.04454e-20, cumulative = -6.72828e-19
GAMG:  Solving for Psi_z, Initial residual = 5.33025e-07, Final residual = 5.33025e-07, No Iterations 0
ExecutionTime = 786.56 s  ClockTime = 806 s

Time = 19.88

Courant Number mean: 0.0701432 max: 0.136775
smoothSolver:  Solving for Ux, Initial residual = 0.000102233, Final residual = 1.05149e-07, No Iterations 1
smoothSolver:  Solving for Uy, Initial residual = 0.000108867, Final residual = 1.06455e-07, No Iterations 1
DICPCG:  Solving for p, Initial residual = 0.00078834, Final residual = 3.87745e-05, No Iterations 90
time step continuity errors : sum local = 1.19377e-10, global = -1.6528e-20, cumulative = -6.89356e-19
GAMG:  Solving for Psi_z, Initial residual = 5.6668e-06, Final residual = 5.32391e-07, No Iterations 2
DICPCG:  Solving for p, Initial residual = 8.7095e-05, Final residual = 9.87929e-07, No Iterations 256
time step continuity errors : sum local = 3.01565e-12, global = -1.58612e-19, cumulative = -8.47968e-19
GAMG:  Solving for Psi_z, Initial residual = 5.32463e-07, Final residual = 5.32463e-07, No Iterations 0
ExecutionTime = 786.99 s  ClockTime = 807 s

Time = 19.89

Courant Number mean: 0.0701432 max: 0.136794
smoothSolver:  Solving for Ux, Initial residual = 0.000102147, Final residual = 1.05035e-07, No Iterations 1
smoothSolver:  Solving for Uy, Initial residual = 0.000108809, Final residual = 1.06377e-07, No Iterations 1
DICPCG:  Solving for p, Initial residual = 0.000785563, Final residual = 3.7854e-05, No Iterations 59
time step continuity errors : sum local = 1.16146e-10, global = 1.47325e-19, cumulative = -7.00644e-19
GAMG:  Solving for Psi_z, Initial residual = 5.66352e-06, Final residual = 5.31827e-07, No Iterations 2
DICPCG:  Solving for p, Initial residual = 8.63183e-05, Final residual = 9.46485e-07, No Iterations 290
time step continuity errors : sum local = 2.88013e-12, global = 1.37548e-19, cumulative = -5.63096e-19
GAMG:  Solving for Psi_z, Initial residual = 5.31896e-07, Final residual = 5.31896e-07, No Iterations 0
ExecutionTime = 787.43 s  ClockTime = 807 s

Time = 19.9

Courant Number mean: 0.0701431 max: 0.136812
smoothSolver:  Solving for Ux, Initial residual = 0.000102081, Final residual = 1.04942e-07, No Iterations 1
smoothSolver:  Solving for Uy, Initial residual = 0.000108736, Final residual = 1.06281e-07, No Iterations 1
DICPCG:  Solving for p, Initial residual = 0.000801284, Final residual = 3.98006e-05, No Iterations 42
time step continuity errors : sum local = 1.21182e-10, global = 3.83477e-20, cumulative = -5.24748e-19
GAMG:  Solving for Psi_z, Initial residual = 5.66023e-06, Final residual = 5.31262e-07, No Iterations 2
DICPCG:  Solving for p, Initial residual = 8.86553e-05, Final residual = 9.42571e-07, No Iterations 298
time step continuity errors : sum local = 2.87334e-12, global = 2.36359e-20, cumulative = -5.01112e-19
GAMG:  Solving for Psi_z, Initial residual = 5.31333e-07, Final residual = 5.31333e-07, No Iterations 0
ExecutionTime = 787.84 s  ClockTime = 808 s

Time = 19.91

Courant Number mean: 0.0701431 max: 0.136831
smoothSolver:  Solving for Ux, Initial residual = 0.000101989, Final residual = 1.04821e-07, No Iterations 1
smoothSolver:  Solving for Uy, Initial residual = 0.000108682, Final residual = 1.06208e-07, No Iterations 1
DICPCG:  Solving for p, Initial residual = 0.000802293, Final residual = 3.9412e-05, No Iterations 37
time step continuity errors : sum local = 1.20202e-10, global = -7.35611e-20, cumulative = -5.74673e-19
GAMG:  Solving for Psi_z, Initial residual = 5.6569e-06, Final residual = 5.30698e-07, No Iterations 2
DICPCG:  Solving for p, Initial residual = 8.76806e-05, Final residual = 9.05102e-07, No Iterations 149
time step continuity errors : sum local = 3.00664e-12, global = -4.29382e-20, cumulative = -6.17611e-19
GAMG:  Solving for Psi_z, Initial residual = 5.30768e-07, Final residual = 5.30768e-07, No Iterations 0
ExecutionTime = 788.1 s  ClockTime = 808 s

Time = 19.92

Courant Number mean: 0.070143 max: 0.136849
smoothSolver:  Solving for Ux, Initial residual = 0.000101912, Final residual = 1.04716e-07, No Iterations 1
smoothSolver:  Solving for Uy, Initial residual = 0.000108617, Final residual = 1.06121e-07, No Iterations 1
DICPCG:  Solving for p, Initial residual = 0.000824137, Final residual = 4.00445e-05, No Iterations 38
time step continuity errors : sum local = 1.22845e-10, global = -1.13254e-20, cumulative = -6.28937e-19
GAMG:  Solving for Psi_z, Initial residual = 5.65353e-06, Final residual = 5.30134e-07, No Iterations 2
DICPCG:  Solving for p, Initial residual = 8.84285e-05, Final residual = 9.69138e-07, No Iterations 268
time step continuity errors : sum local = 2.96065e-12, global = -2.90714e-20, cumulative = -6.58008e-19
GAMG:  Solving for Psi_z, Initial residual = 5.30206e-07, Final residual = 5.30206e-07, No Iterations 0
ExecutionTime = 788.48 s  ClockTime = 808 s

Time = 19.93

Courant Number mean: 0.070143 max: 0.136867
smoothSolver:  Solving for Ux, Initial residual = 0.000101839, Final residual = 1.04617e-07, No Iterations 1
smoothSolver:  Solving for Uy, Initial residual = 0.000108547, Final residual = 1.06029e-07, No Iterations 1
DICPCG:  Solving for p, Initial residual = 0.00082246, Final residual = 3.97451e-05, No Iterations 38
time step continuity errors : sum local = 1.21072e-10, global = -2.36612e-20, cumulative = -6.81669e-19
GAMG:  Solving for Psi_z, Initial residual = 5.65014e-06, Final residual = 5.29571e-07, No Iterations 2
DICPCG:  Solving for p, Initial residual = 8.87187e-05, Final residual = 9.95604e-07, No Iterations 168
time step continuity errors : sum local = 3.37537e-12, global = 3.99416e-20, cumulative = -6.41728e-19
GAMG:  Solving for Psi_z, Initial residual = 5.29643e-07, Final residual = 5.29643e-07, No Iterations 0
ExecutionTime = 788.75 s  ClockTime = 809 s

Time = 19.94

Courant Number mean: 0.0701429 max: 0.136884
smoothSolver:  Solving for Ux, Initial residual = 0.000101753, Final residual = 1.04505e-07, No Iterations 1
smoothSolver:  Solving for Uy, Initial residual = 0.000108491, Final residual = 1.05952e-07, No Iterations 1
DICPCG:  Solving for p, Initial residual = 0.000796447, Final residual = 3.84479e-05, No Iterations 43
time step continuity errors : sum local = 1.17546e-10, global = 1.1439e-19, cumulative = -5.27337e-19
GAMG:  Solving for Psi_z, Initial residual = 5.6467e-06, Final residual = 5.29009e-07, No Iterations 2
DICPCG:  Solving for p, Initial residual = 8.57403e-05, Final residual = 8.73138e-07, No Iterations 283
time step continuity errors : sum local = 2.65604e-12, global = 1.47531e-19, cumulative = -3.79807e-19
GAMG:  Solving for Psi_z, Initial residual = 5.29081e-07, Final residual = 5.29081e-07, No Iterations 0
ExecutionTime = 789.15 s  ClockTime = 809 s

Time = 19.95

Courant Number mean: 0.0701429 max: 0.136902
smoothSolver:  Solving for Ux, Initial residual = 0.00010167, Final residual = 1.04396e-07, No Iterations 1
smoothSolver:  Solving for Uy, Initial residual = 0.000108434, Final residual = 1.05873e-07, No Iterations 1
DICPCG:  Solving for p, Initial residual = 0.000770382, Final residual = 3.793e-05, No Iterations 58
time step continuity errors : sum local = 1.15511e-10, global = -7.15759e-20, cumulative = -4.51383e-19
GAMG:  Solving for Psi_z, Initial residual = 5.64327e-06, Final residual = 5.28448e-07, No Iterations 2
DICPCG:  Solving for p, Initial residual = 8.33952e-05, Final residual = 9.73143e-07, No Iterations 243
time step continuity errors : sum local = 2.96485e-12, global = -7.23762e-20, cumulative = -5.23759e-19
GAMG:  Solving for Psi_z, Initial residual = 5.28517e-07, Final residual = 5.28517e-07, No Iterations 0
ExecutionTime = 789.51 s  ClockTime = 809 s

Time = 19.96

Courant Number mean: 0.0701428 max: 0.136919
smoothSolver:  Solving for Ux, Initial residual = 0.000101592, Final residual = 1.04295e-07, No Iterations 1
smoothSolver:  Solving for Uy, Initial residual = 0.000108373, Final residual = 1.05791e-07, No Iterations 1
DICPCG:  Solving for p, Initial residual = 0.000802614, Final residual = 4.00771e-05, No Iterations 62
time step continuity errors : sum local = 1.23043e-10, global = 7.27102e-20, cumulative = -4.51049e-19
GAMG:  Solving for Psi_z, Initial residual = 5.63985e-06, Final residual = 5.27887e-07, No Iterations 2
DICPCG:  Solving for p, Initial residual = 8.45694e-05, Final residual = 9.91726e-07, No Iterations 290
time step continuity errors : sum local = 3.01699e-12, global = 2.32267e-20, cumulative = -4.27822e-19
GAMG:  Solving for Psi_z, Initial residual = 5.27958e-07, Final residual = 5.27958e-07, No Iterations 0
ExecutionTime = 789.94 s  ClockTime = 810 s

Time = 19.97

Courant Number mean: 0.0701428 max: 0.136936
smoothSolver:  Solving for Ux, Initial residual = 0.000101489, Final residual = 1.04164e-07, No Iterations 1
smoothSolver:  Solving for Uy, Initial residual = 0.000108332, Final residual = 1.05731e-07, No Iterations 1
DICPCG:  Solving for p, Initial residual = 0.000792285, Final residual = 3.85333e-05, No Iterations 63
time step continuity errors : sum local = 1.18405e-10, global = 2.7509e-20, cumulative = -4.00313e-19
GAMG:  Solving for Psi_z, Initial residual = 5.63639e-06, Final residual = 5.27327e-07, No Iterations 2
DICPCG:  Solving for p, Initial residual = 8.29068e-05, Final residual = 9.72299e-07, No Iterations 298
time step continuity errors : sum local = 2.95833e-12, global = -1.35145e-20, cumulative = -4.13827e-19
GAMG:  Solving for Psi_z, Initial residual = 5.27399e-07, Final residual = 5.27399e-07, No Iterations 0
ExecutionTime = 790.38 s  ClockTime = 810 s

Time = 19.98

Courant Number mean: 0.0701427 max: 0.136952
smoothSolver:  Solving for Ux, Initial residual = 0.000101432, Final residual = 1.04087e-07, No Iterations 1
smoothSolver:  Solving for Uy, Initial residual = 0.000108252, Final residual = 1.05627e-07, No Iterations 1
DICPCG:  Solving for p, Initial residual = 0.00078777, Final residual = 3.83027e-05, No Iterations 62
time step continuity errors : sum local = 1.17327e-10, global = 4.51628e-20, cumulative = -3.68665e-19
GAMG:  Solving for Psi_z, Initial residual = 5.63301e-06, Final residual = 5.26767e-07, No Iterations 2
DICPCG:  Solving for p, Initial residual = 8.42593e-05, Final residual = 9.31474e-07, No Iterations 284
time step continuity errors : sum local = 2.8346e-12, global = -6.53796e-20, cumulative = -4.34044e-19
GAMG:  Solving for Psi_z, Initial residual = 5.26837e-07, Final residual = 5.26837e-07, No Iterations 0
ExecutionTime = 790.8 s  ClockTime = 811 s

Time = 19.99

Courant Number mean: 0.0701426 max: 0.136969
smoothSolver:  Solving for Ux, Initial residual = 0.000101337, Final residual = 1.03965e-07, No Iterations 1
smoothSolver:  Solving for Uy, Initial residual = 0.000108203, Final residual = 1.0556e-07, No Iterations 1
DICPCG:  Solving for p, Initial residual = 0.000789283, Final residual = 3.69372e-05, No Iterations 60
time step continuity errors : sum local = 1.13212e-10, global = 3.1136e-20, cumulative = -4.02908e-19
GAMG:  Solving for Psi_z, Initial residual = 5.62965e-06, Final residual = 5.26207e-07, No Iterations 2
DICPCG:  Solving for p, Initial residual = 7.99371e-05, Final residual = 9.74204e-07, No Iterations 291
time step continuity errors : sum local = 2.9621e-12, global = -1.25476e-19, cumulative = -5.28384e-19
GAMG:  Solving for Psi_z, Initial residual = 5.26278e-07, Final residual = 5.26278e-07, No Iterations 0
ExecutionTime = 791.23 s  ClockTime = 811 s

Time = 20

Courant Number mean: 0.0701425 max: 0.136985
smoothSolver:  Solving for Ux, Initial residual = 0.000101272, Final residual = 1.03878e-07, No Iterations 1
smoothSolver:  Solving for Uy, Initial residual = 0.00010813, Final residual = 1.05463e-07, No Iterations 1
DICPCG:  Solving for p, Initial residual = 0.000800307, Final residual = 3.9126e-05, No Iterations 41
time step continuity errors : sum local = 1.1896e-10, global = -1.30356e-20, cumulative = -5.41419e-19
GAMG:  Solving for Psi_z, Initial residual = 5.62632e-06, Final residual = 5.25649e-07, No Iterations 2
DICPCG:  Solving for p, Initial residual = 7.97644e-05, Final residual = 9.77051e-07, No Iterations 154
time step continuity errors : sum local = 3.38728e-12, global = 4.46746e-21, cumulative = -5.36952e-19
GAMG:  Solving for Psi_z, Initial residual = 5.2572e-07, Final residual = 5.2572e-07, No Iterations 0
ExecutionTime = 791.8 s  ClockTime = 812 s

End

